Circuit: * D:\Projects\CerebroSystem\Sim\LT3513\Draft1.asc

Instance "m:u3:1": Width narrower than recommended for a level 3 MOSFET.
u2:vid: Missing value, assumed 0V @ DC
Ignoring empty pin current: Ix(u3:50)
Direct Newton iteration failed to find .op point.  (Use ".option noopiter" to skip.)
Starting Gmin stepping
Gmin = 10
Gmin = 1.07374
Gmin = 0.115292
Gmin = 0.0123794
Gmin = 0.00132923
Gmin = 0.000142725
vernier = 0.5
vernier = 0.25
vernier = 0.125
Gmin = 7.87341e-005
vernier = 0.0625
vernier = 0.03125
vernier = 0.0416667
Gmin = 7.6494e-005
vernier = 0.0555555
Gmin = 6.7559e-005
vernier = 0.074074
vernier = 0.0987653
Gmin = 5.48905e-005
vernier = 0.131687
vernier = 0.175583
Gmin = 3.94996e-005
vernier = 0.23411
Gmin = 2.36456e-005
vernier = 0.312147
vernier = 0.416196
Gmin = 1.0139e-005
vernier = 0.554928
vernier = 0.739903
Gmin = 2.71689e-006
vernier = 0.986537
Gmin = 3.67112e-007
vernier = 1
Gmin = 3.94184e-008
Gmin = 4.23252e-009
Gmin = 4.54463e-010
Gmin = 4.87976e-011
Gmin = 5.2396e-012
Gmin = 5.62598e-013
Gmin = 0
Gmin stepping succeeded in finding the operating point.

Direct Newton iteration failed to find .op point.  (Use ".option noopiter" to skip.)
Starting Gmin stepping
Gmin = 10
Gmin = 1.07374
Gmin = 0.115292
Gmin = 0.0123794
Gmin = 0.00132923
Gmin = 0.000142725
vernier = 0.5
vernier = 0.25
vernier = 0.125
Gmin = 7.87341e-005
vernier = 0.0625
vernier = 0.03125
vernier = 0.0416667
Gmin = 7.6494e-005
vernier = 0.0555555
Gmin = 6.7559e-005
vernier = 0.074074
vernier = 0.0987653
Gmin = 5.48905e-005
vernier = 0.131687
vernier = 0.175583
Gmin = 3.94996e-005
vernier = 0.23411
Gmin = 2.36456e-005
vernier = 0.312147
vernier = 0.416196
Gmin = 1.0139e-005
vernier = 0.554928
vernier = 0.739903
Gmin = 2.71689e-006
vernier = 0.986537
Gmin = 3.67112e-007
vernier = 1
Gmin = 3.94184e-008
Gmin = 4.23252e-009
Gmin = 4.54463e-010
vernier = 0.5
vernier = 0.666667
vernier = 0.333333
Gmin = 2.31607e-010
vernier = 0.166667
vernier = 0.0833333
vernier = 0.0416667
vernier = 0.0208333
vernier = 0.0104167
vernier = 0.00520833
vernier = 0.00260417
vernier = 0.00130208
vernier = 0.000651042
vernier = 0.000488281
Gmin = 2.31607e-010
Gmin = 0
Gmin stepping failed

Starting source stepping with srcstepmethod=0
Source Step = 3.0303%
Source Step = 12.1271%
Source Step = 12.1567%
Source Step = 12.1863%
Source Step = 12.2159%
Source Step = 12.2455%
Source Step = 12.2751%
vernier = 0.00146484
Source Step = 12.318%
Source Step = 12.3624%
Source Step = 12.4068%
Source Step = 12.4512%
Source Step = 12.4956%
vernier = 0.00219727
Source Step = 12.5577%
Source Step = 12.6243%
Source Step = 12.6909%
Source Step = 12.7575%
Source Step = 12.824%
vernier = 0.0032959
Source Step = 12.9139%
Source Step = 13.0138%
Source Step = 13.1137%
Source Step = 13.2136%
Source Step = 13.3134%
vernier = 0.00494385
Source Step = 13.4433%
Source Step = 13.5931%
Source Step = 13.7429%
Source Step = 13.8927%
Source Step = 14.0425%
vernier = 0.00741577
Source Step = 14.2298%
Source Step = 14.4545%
Source Step = 14.6792%
Source Step = 14.904%
Source Step = 15.1287%
vernier = 0.0111237
Source Step = 15.3983%
Source Step = 15.7354%
Source Step = 16.0725%
Source Step = 16.4096%
Source Step = 16.7467%
vernier = 0.0166855
Source Step = 17.1343%
Source Step = 17.6399%
Source Step = 18.1455%
Source Step = 18.6512%
Source Step = 19.1568%
vernier = 0.0250282
Source Step = 19.713%
Source Step = 20.4714%
Source Step = 21.2298%
Source Step = 21.9883%
Source Step = 22.7467%
vernier = 0.0375423
Source Step = 23.543%
Source Step = 24.6807%
Source Step = 25.8183%
Source Step = 26.956%
Source Step = 28.0936%
Source Step = 29.2313%
vernier = 0.0563135
Source Step = 30.9377%
Source Step = 32.6442%
Source Step = 34.3507%
Source Step = 36.0572%
Source Step = 37.7636%
vernier = 0.0844703
Source Step = 40.238%
Source Step = 42.7977%
Source Step = 45.3574%
Source Step = 47.9171%
Source Step = 50.4768%
vernier = 0.126705
Source Step = 54.0604%
Source Step = 57.9%
Source Step = 61.7395%
Source Step = 65.5791%
Source Step = 69.4187%
vernier = 0.190058
Source Step = 74.6021%
Source Step = 80.3614%
Source Step = 86.1207%
Source Step = 91.8801%
Source Step = 94.9037%
Source Step = 95.3357%
Source Step = 95.4437%
Source Step = 95.5336%
Source Step = 95.6236%
Source Step = 95.7136%
Source Step = 95.8036%
vernier = 0.00445449
Source Step = 95.9071%
Source Step = 96.0421%
Source Step = 96.1771%
Source Step = 96.2277%
Source Step = 96.2614%
Source Step = 96.2952%
Source Step = 96.3289%
Source Step = 96.3627%
Source Step = 96.3964%
Source Step = 96.4302%
Source Step = 96.4639%
Source Step = 96.4977%
Source Step = 96.5314%
Source Step = 96.5652%
Source Step = 96.5989%
Source Step = 96.6326%
Source Step = 96.6664%
Source Step = 96.7001%
Source Step = 96.7339%
Source Step = 96.7676%
Source Step = 96.8014%
Source Step = 96.8351%
Source Step = 96.8689%
Source Step = 96.9026%
Source Step = 96.9364%
Source Step = 96.9701%
Source Step = 97.0038%
Source Step = 97.0376%
Source Step = 97.0713%
Source Step = 97.1051%
Source Step = 97.1388%
Source Step = 97.1726%
Source Step = 97.2063%
Source Step = 97.2401%
Source Step = 97.2738%
Source Step = 97.3076%
Source Step = 97.3413%
Source Step = 97.3751%
Source Step = 97.4088%
Source Step = 97.4425%
Source Step = 97.4763%
Source Step = 97.51%
Source Step = 97.5438%
Source Step = 97.5775%
Source Step = 97.6113%
Source Step = 97.645%
Source Step = 97.6788%
Source Step = 97.7125%
Source Step = 97.7463%
Source Step = 97.78%
vernier = 0.00167043
Source Step = 97.8306%
Source Step = 97.8812%
Source Step = 97.9319%
Source Step = 97.9825%
Source Step = 98.0331%
Source Step = 98.0837%
Source Step = 98.1343%
Source Step = 98.185%
Source Step = 98.2356%
Source Step = 98.2862%
Source Step = 98.3368%
Source Step = 98.3874%
Source Step = 98.4381%
Source Step = 98.4887%
Source Step = 98.5393%
Source Step = 98.5899%
Source Step = 98.6405%
Source Step = 98.6912%
Source Step = 98.7418%
Source Step = 98.7924%
Source Step = 98.843%
Source Step = 98.8936%
Source Step = 98.9443%
Source Step = 98.9949%
Source Step = 99.0455%
Source Step = 99.0961%
Source Step = 99.1467%
Source Step = 99.1973%
Source Step = 99.248%
Source Step = 99.2986%
Source Step = 99.3492%
Source Step = 99.3998%
Source Step = 99.4504%
Source Step = 99.5011%
Source Step = 99.5517%
Source Step = 99.6023%
Source Step = 99.6529%
Source Step = 99.7035%
Source Step = 99.7542%
Source Step = 99.8048%
Source Step = 99.8554%
Source Step = 99.906%
Source Step = 99.9566%
Source Step = 100%
Source Step = 100%
Source Step = 100%
Source Step = 100%
Source stepping succeeded in finding the operating point.

Direct Newton iteration failed to find .op point.  (Use ".option noopiter" to skip.)
Starting Gmin stepping
Gmin = 10
Gmin = 1.07374
Gmin = 0.115292
Gmin = 0.0123794
Gmin = 0.00132923
Gmin = 0.000142725
vernier = 0.5
vernier = 0.25
vernier = 0.125
Gmin = 7.87341e-005
vernier = 0.0625
vernier = 0.03125
vernier = 0.0416667
Gmin = 7.6494e-005
vernier = 0.0555555
Gmin = 6.7559e-005
vernier = 0.074074
vernier = 0.0987653
Gmin = 5.48905e-005
vernier = 0.131687
vernier = 0.175583
Gmin = 3.94996e-005
vernier = 0.23411
Gmin = 2.36456e-005
vernier = 0.312147
vernier = 0.416196
Gmin = 1.0139e-005
vernier = 0.554928
vernier = 0.739903
Gmin = 2.71689e-006
vernier = 0.986537
Gmin = 3.67112e-007
vernier = 1
Gmin = 3.94184e-008
Gmin = 4.23252e-009
vernier = 0.5
Gmin = 8.76665e-010
vernier = 0.666667
vernier = 0.333333
vernier = 0.166667
vernier = 0.0833333
vernier = 0.0416667
vernier = 0.0208333
Gmin = 5.27751e-010
vernier = 0.0104167
vernier = 0.00520833
vernier = 0.00260417
vernier = 0.00130208
vernier = 0.000651042
vernier = 0.000488281
Gmin = 0
Gmin stepping failed

Starting source stepping with srcstepmethod=0
Source Step = 3.0303%
Source Step = 12.1271%
Source Step = 12.1567%
Source Step = 12.1863%
Source Step = 12.2159%
Source Step = 12.2455%
Source Step = 12.2751%
vernier = 0.00146484
Source Step = 12.318%
Source Step = 12.3624%
Source Step = 12.4068%
Source Step = 12.4512%
Source Step = 12.4956%
vernier = 0.00219727
Source Step = 12.5577%
Source Step = 12.6243%
Source Step = 12.6909%
Source Step = 12.7575%
Source Step = 12.824%
vernier = 0.0032959
Source Step = 12.9139%
Source Step = 13.0138%
Source Step = 13.1137%
Source Step = 13.2136%
Source Step = 13.3134%
vernier = 0.00494385
Source Step = 13.4433%
Source Step = 13.5931%
Source Step = 13.7429%
Source Step = 13.8927%
Source Step = 14.0425%
vernier = 0.00741577
Source Step = 14.2298%
Source Step = 14.4545%
Source Step = 14.6792%
Source Step = 14.904%
Source Step = 15.1287%
vernier = 0.0111237
Source Step = 15.3983%
Source Step = 15.7354%
Source Step = 16.0725%
Source Step = 16.4096%
Source Step = 16.7467%
vernier = 0.0166855
Source Step = 17.1343%
Source Step = 17.6399%
Source Step = 18.1455%
Source Step = 18.6512%
Source Step = 19.1568%
vernier = 0.0250282
Source Step = 19.713%
Source Step = 20.4714%
Source Step = 21.2298%
Source Step = 21.9883%
Source Step = 22.7467%
vernier = 0.0375423
Source Step = 23.543%
Source Step = 24.6807%
Source Step = 25.8183%
Source Step = 26.956%
Source Step = 28.0936%
Source Step = 29.2313%
vernier = 0.0563135
Source Step = 30.9377%
Source Step = 32.6442%
Source Step = 34.3507%
Source Step = 36.0572%
Source Step = 37.7636%
vernier = 0.0844703
Source Step = 40.238%
Source Step = 42.7977%
Source Step = 45.3574%
Source Step = 47.9171%
Source Step = 50.4768%
vernier = 0.126705
Source Step = 54.0604%
Source Step = 57.9%
Source Step = 61.7395%
Source Step = 65.5791%
Source Step = 69.4187%
vernier = 0.190058
Source Step = 74.6021%
Source Step = 80.3614%
Source Step = 86.1207%
Source Step = 91.8801%
Source Step = 94.9037%
Source Step = 96.3436%
Source Step = 97.7834%
Source Step = 99.2232%
Source stepping succeeded in finding the operating point.

Direct Newton iteration failed to find .op point.  (Use ".option noopiter" to skip.)
Starting Gmin stepping
Gmin = 10
Gmin = 1.07374
Gmin = 0.115292
Gmin = 0.0123794
Gmin = 0.00132923
Gmin = 0.000142725
vernier = 0.5
vernier = 0.25
vernier = 0.125
Gmin = 7.87341e-005
vernier = 0.0625
vernier = 0.03125
vernier = 0.0416667
Gmin = 7.6494e-005
vernier = 0.0555555
Gmin = 6.7559e-005
vernier = 0.074074
vernier = 0.0987653
Gmin = 5.48905e-005
vernier = 0.131687
vernier = 0.175583
Gmin = 3.94996e-005
vernier = 0.23411
Gmin = 2.36456e-005
vernier = 0.312147
vernier = 0.416196
Gmin = 1.0139e-005
vernier = 0.554928
vernier = 0.739903
Gmin = 2.71689e-006
vernier = 0.986537
Gmin = 3.67112e-007
vernier = 1
Gmin = 3.94184e-008
Gmin = 4.23252e-009
vernier = 0.5
vernier = 0.25
vernier = 0.125
vernier = 0.0625
vernier = 0.03125
vernier = 0.015625
vernier = 0.0078125
vernier = 0.00390625
vernier = 0.00195313
Gmin = 4.23252e-009
vernier = 0.000976563
vernier = 0.000488281
Gmin = 0
Gmin stepping failed

Starting source stepping with srcstepmethod=0
Source Step = 3.0303%
Source Step = 12.1271%
Source Step = 12.1567%
Source Step = 12.1863%
Source Step = 12.2159%
Source Step = 12.2455%
Source Step = 12.2751%
vernier = 0.00146484
Source Step = 12.318%
Source Step = 12.3624%
Source Step = 12.4068%
Source Step = 12.4512%
Source Step = 12.4956%
vernier = 0.00219727
Source Step = 12.5577%
Source Step = 12.6243%
Source Step = 12.6909%
Source Step = 12.7575%
Source Step = 12.824%
vernier = 0.0032959
Source Step = 12.9139%
Source Step = 13.0138%
Source Step = 13.1137%
Source Step = 13.2136%
Source Step = 13.3134%
vernier = 0.00494385
Source Step = 13.4433%
Source Step = 13.5931%
Source Step = 13.7429%
Source Step = 13.8927%
Source Step = 14.0425%
vernier = 0.00741577
Source Step = 14.2298%
Source Step = 14.4545%
Source Step = 14.6792%
Source Step = 14.904%
Source Step = 15.1287%
vernier = 0.0111237
Source Step = 15.3983%
Source Step = 15.7354%
Source Step = 16.0725%
Source Step = 16.4096%
Source Step = 16.7467%
vernier = 0.0166855
Source Step = 17.1343%
Source Step = 17.6399%
Source Step = 18.1455%
Source Step = 18.6512%
Source Step = 19.1568%
vernier = 0.0250282
Source Step = 19.713%
Source Step = 20.4714%
Source Step = 21.2298%
Source Step = 21.9883%
Source Step = 22.7467%
vernier = 0.0375423
Source Step = 23.543%
Source Step = 24.6807%
Source Step = 25.8183%
Source Step = 26.956%
Source Step = 28.0936%
Source Step = 29.2313%
vernier = 0.0563135
Source Step = 30.9377%
Source Step = 32.6442%
Source Step = 34.3507%
Source Step = 36.0572%
Source Step = 37.7636%
vernier = 0.0844703
Source Step = 40.238%
Source Step = 42.7977%
Source Step = 45.3574%
Source Step = 47.9171%
Source Step = 50.4768%
vernier = 0.126705
Source Step = 54.0604%
Source Step = 57.9%
Source Step = 61.7395%
Source Step = 65.5791%
Source Step = 69.4187%
vernier = 0.190058
Source Step = 74.6021%
Source Step = 80.3614%
Source Step = 86.1207%
Source Step = 91.8801%
Source Step = 94.9127%
Source Step = 95.0027%
Source Step = 95.0927%
Source Step = 95.1827%
Source Step = 95.2727%
Source Step = 95.3627%
Source Step = 95.4527%
Source Step = 95.5426%
Source Step = 95.6326%
Source Step = 95.7226%
Source Step = 95.8126%
Source Step = 95.9026%
Source Step = 95.9926%
Source Step = 96.0826%
Source Step = 96.1726%
Source Step = 96.2626%
Source Step = 96.3525%
Source Step = 96.4425%
Source Step = 96.5325%
Source Step = 96.6225%
Source Step = 96.7125%
Source Step = 96.8025%
Source Step = 96.8925%
Source Step = 96.9825%
Source Step = 97.0725%
Source Step = 97.1625%
Source Step = 97.2524%
Source Step = 97.3424%
Source Step = 97.4324%
Source Step = 97.5224%
Source Step = 97.6124%
Source Step = 97.7024%
Source Step = 97.7924%
Source Step = 97.8824%
Source Step = 97.9724%
Source Step = 98.0624%
Source Step = 98.1523%
Source Step = 98.2423%
Source Step = 98.3323%
Source Step = 98.4223%
Source Step = 98.5123%
Source Step = 98.6023%
Source Step = 98.6923%
Source Step = 98.7823%
Source Step = 98.8723%
Source Step = 98.9622%
Source Step = 99.0522%
Source Step = 99.1422%
Source Step = 99.2322%
Source Step = 99.3222%
Source Step = 99.4122%
Source Step = 99.5022%
Source Step = 99.5922%
Source Step = 99.6822%
Source Step = 99.7722%
Source Step = 99.8621%
Source Step = 99.9521%
Source Step = 100%
Source Step = 100%
Source Step = 100%
Source Step = 100%
Source stepping succeeded in finding the operating point.

Direct Newton iteration failed to find .op point.  (Use ".option noopiter" to skip.)
Starting Gmin stepping
Gmin = 10
Gmin = 1.07374
Gmin = 0.115292
Gmin = 0.0123794
Gmin = 0.00132923
Gmin = 0.000142725
vernier = 0.5
vernier = 0.25
vernier = 0.125
Gmin = 7.87341e-005
vernier = 0.0625
vernier = 0.03125
vernier = 0.0416667
Gmin = 7.6494e-005
vernier = 0.0555555
Gmin = 6.7559e-005
vernier = 0.074074
vernier = 0.0987653
Gmin = 5.48905e-005
vernier = 0.131687
vernier = 0.175583
Gmin = 3.94996e-005
vernier = 0.23411
Gmin = 2.36456e-005
vernier = 0.312147
vernier = 0.416196
Gmin = 1.0139e-005
vernier = 0.554928
vernier = 0.739903
Gmin = 2.71689e-006
vernier = 0.986537
Gmin = 3.67112e-007
vernier = 1
Gmin = 3.94184e-008
Gmin = 4.23252e-009
vernier = 0.5
vernier = 0.25
vernier = 0.125
vernier = 0.0625
vernier = 0.03125
vernier = 0.015625
vernier = 0.0078125
vernier = 0.00390625
vernier = 0.00195313
vernier = 0.000976563
Gmin = 5.29065e-009
vernier = 0.000488281
Gmin = 0
Gmin stepping failed

Starting source stepping with srcstepmethod=0
Source Step = 3.0303%
Source Step = 12.1271%
Source Step = 12.1567%
Source Step = 12.1863%
Source Step = 12.2159%
Source Step = 12.2455%
Source Step = 12.2751%
vernier = 0.00146484
Source Step = 12.318%
Source Step = 12.3624%
Source Step = 12.4068%
Source Step = 12.4512%
Source Step = 12.4956%
vernier = 0.00219727
Source Step = 12.5577%
Source Step = 12.6243%
Source Step = 12.6909%
Source Step = 12.7575%
Source Step = 12.824%
vernier = 0.0032959
Source Step = 12.9139%
Source Step = 13.0138%
Source Step = 13.1137%
Source Step = 13.2136%
Source Step = 13.3134%
vernier = 0.00494385
Source Step = 13.4433%
Source Step = 13.5931%
Source Step = 13.7429%
Source Step = 13.8927%
Source Step = 14.0425%
vernier = 0.00741577
Source Step = 14.2298%
Source Step = 14.4545%
Source Step = 14.6792%
Source Step = 14.904%
Source Step = 15.1287%
vernier = 0.0111237
Source Step = 15.3983%
Source Step = 15.7354%
Source Step = 16.0725%
Source Step = 16.4096%
Source Step = 16.7467%
vernier = 0.0166855
Source Step = 17.1343%
Source Step = 17.6399%
Source Step = 18.1455%
Source Step = 18.6512%
Source Step = 19.1568%
vernier = 0.0250282
Source Step = 19.713%
Source Step = 20.4714%
Source Step = 21.2298%
Source Step = 21.9883%
Source Step = 22.7467%
vernier = 0.0375423
Source Step = 23.543%
Source Step = 24.6807%
Source Step = 25.8183%
Source Step = 26.956%
Source Step = 28.0936%
Source Step = 29.2313%
vernier = 0.0563135
Source Step = 30.9377%
Source Step = 32.6442%
Source Step = 34.3507%
Source Step = 36.0572%
Source Step = 37.7636%
vernier = 0.0844703
Source Step = 40.238%
Source Step = 42.7977%
Source Step = 45.3574%
Source Step = 47.9171%
Source Step = 50.4768%
vernier = 0.126705
Source Step = 54.0604%
Source Step = 57.9%
Source Step = 61.7395%
Source Step = 65.5791%
Source Step = 69.4187%
vernier = 0.190058
Source Step = 74.6021%
Source Step = 80.3614%
Source Step = 86.1207%
Source Step = 91.8801%
Source Step = 97.6394%
vernier = 0.285087
Source Step = 100%
Source stepping succeeded in finding the operating point.

Direct Newton iteration failed to find .op point.  (Use ".option noopiter" to skip.)
Starting Gmin stepping
Gmin = 10
Gmin = 1.07374
Gmin = 0.115292
Gmin = 0.0123794
Gmin = 0.00132923
Gmin = 0.000142725
vernier = 0.5
vernier = 0.25
vernier = 0.125
Gmin = 7.87341e-005
vernier = 0.0625
vernier = 0.03125
vernier = 0.0416667
Gmin = 7.6494e-005
vernier = 0.0555555
Gmin = 6.7559e-005
vernier = 0.074074
vernier = 0.0987653
Gmin = 5.48905e-005
vernier = 0.131687
vernier = 0.175583
Gmin = 3.94996e-005
vernier = 0.23411
Gmin = 2.36456e-005
vernier = 0.312147
vernier = 0.416196
Gmin = 1.0139e-005
vernier = 0.554928
vernier = 0.739903
Gmin = 2.71689e-006
vernier = 0.986537
Gmin = 3.67112e-007
vernier = 1
Gmin = 3.94184e-008
vernier = 0.5
vernier = 0.25
vernier = 0.125
vernier = 0.0625
vernier = 0.03125
vernier = 0.015625
Gmin = 2.01822e-008
vernier = 0.0078125
vernier = 0.00390625
vernier = 0.00195313
vernier = 0.000976563
vernier = 0.000488281
Gmin = 0
Gmin stepping failed

Starting source stepping with srcstepmethod=0
Source Step = 3.0303%
Source Step = 12.1271%
Source Step = 12.1567%
Source Step = 12.1863%
Source Step = 12.2159%
Source Step = 12.2455%
Source Step = 12.2751%
vernier = 0.00146484
Source Step = 12.3195%
Source Step = 12.3639%
Source Step = 12.4083%
Source Step = 12.4527%
Source Step = 12.497%
vernier = 0.00219727
Source Step = 12.5614%
Source Step = 12.628%
Source Step = 12.6946%
Source Step = 12.7612%
Source Step = 12.8277%
vernier = 0.0032959
Source Step = 12.921%
Source Step = 13.0208%
Source Step = 13.1207%
Source Step = 13.2206%
Source Step = 13.3205%
vernier = 0.00494385
Source Step = 13.4553%
Source Step = 13.6051%
Source Step = 13.7549%
Source Step = 13.9047%
Source Step = 14.0545%
vernier = 0.00741577
Source Step = 14.2493%
Source Step = 14.474%
Source Step = 14.6987%
Source Step = 14.9235%
Source Step = 15.1482%
vernier = 0.0111237
Source Step = 15.4291%
Source Step = 15.7662%
Source Step = 16.1032%
Source Step = 16.4403%
Source Step = 16.7774%
vernier = 0.0166855
Source Step = 17.1819%
Source Step = 17.6875%
Source Step = 18.1931%
Source Step = 18.6988%
Source Step = 19.2044%
vernier = 0.0250282
Source Step = 19.7859%
Source Step = 20.5443%
Source Step = 21.3027%
Source Step = 22.0611%
Source Step = 22.8196%
vernier = 0.0375423
Source Step = 23.6539%
Source Step = 24.7915%
Source Step = 25.9291%
Source Step = 27.0668%
Source Step = 28.2044%
vernier = 0.0563135
Source Step = 29.399%
Source Step = 31.1054%
Source Step = 32.8119%
Source Step = 34.5184%
Source Step = 36.2248%
Source Step = 37.9313%
vernier = 0.0844703
Source Step = 40.491%
Source Step = 43.0507%
Source Step = 45.6104%
Source Step = 48.1701%
Source Step = 50.7298%
vernier = 0.126705
Source Step = 54.4414%
Source Step = 58.281%
Source Step = 62.1205%
Source Step = 65.9601%
Source Step = 69.7996%
vernier = 0.190058
Source Step = 75.175%
Source Step = 80.9344%
Source Step = 86.6937%
Source Step = 92.453%
Source Step = 95.9086%
Source Step = 97.3485%
Source Step = 98.3204%
Source Step = 98.4284%
Source Step = 98.5183%
Source Step = 98.6083%
Source Step = 98.6983%
Source Step = 98.7883%
Source Step = 98.8783%
Source Step = 98.9683%
Source Step = 99.0583%
Source Step = 99.1483%
Source Step = 99.2383%
vernier = 0.00445449
Source Step = 99.3507%
Source Step = 99.4857%
Source Step = 99.6207%
Source Step = 99.7557%
Source Step = 99.8063%
Source Step = 99.8401%
Source Step = 99.8738%
Source Step = 99.9076%
Source Step = 99.9413%
Source Step = 99.975%
Source Step = 100%
Source Step = 100%
Source Step = 100%
Source Step = 100%
Source Step = 100%
Source Step = 100%
Source Step = 100%
Source Step = 100%
Source Step = 100%
Source Step = 100%
Source Step = 100%
Source Step = 100%
Source Step = 100%
Source Step = 100%
Source Step = 100%
Source Step = 100%
Source Step = 100%
Source Step = 100%
Source Step = 100%
Source Step = 100%
Source Step = 100%
Source Step = 100%
Source Step = 100%
Source Step = 100%
Source Step = 100%
Source Step = 100%
Source Step = 100%
Source Step = 100%
Source Step = 100%
Source Step = 100%
Source Step = 100%
Source Step = 100%
Source Step = 100%
Source Step = 100%
Source Step = 100%
Source Step = 100%
Source Step = 100%
Source Step = 100%
Source Step = 100%
Source Step = 100%
Source Step = 100%
Source Step = 100%
Source Step = 100%
Source Step = 100%
Source Step = 100%
Source Step = 100%
Source Step = 100%
Source Step = 100%
Source Step = 100%
Source Step = 100%
Source Step = 100%
Source Step = 100%
Source Step = 100%
Source Step = 100%
Source Step = 100%
Source Step = 100%
Source Step = 100%
Source Step = 100%
Source Step = 100%
Source Step = 100%
Source Step = 100%
Source Step = 100%
Source Step = 100%
Source Step = 100%
Source Step = 100%
Source Step = 100%
Source Step = 100%
Source Step = 100%
Source Step = 100%
Source Step = 100%
Source Step = 100%
Source Step = 100%
Source Step = 100%
Source Step = 100%
Source Step = 100%
Source Step = 100%
Source Step = 100%
Source Step = 100%
Source Step = 100%
Source Step = 100%
Source Step = 100%
Source Step = 100%
Source Step = 100%
Source Step = 100%
Source Step = 100%
Source Step = 100%
Source Step = 100%
Source Step = 100%
Source Step = 100%
Source Step = 100%
Source Step = 100%
Source Step = 100%
Source Step = 100%
Source Step = 100%
Source Step = 100%
Source Step = 100%
Source Step = 100%
Source Step = 100%
Source Step = 100%
Source Step = 100%
Source Step = 100%
Source Step = 100%
Source Step = 100%
Source Step = 100%
Source Step = 100%
Source Step = 100%
Source Step = 100%
Source Step = 100%
Source Step = 100%
Source Step = 100%
Source Step = 100%
Source Step = 100%
Source Step = 100%
Source Step = 100%
Source Step = 100%
Source Step = 100%
Source Step = 100%
Source Step = 100%
Source Step = 100%
Source Step = 100%
Source Step = 100%
Source Step = 100%
Source Step = 100%
Source Step = 100%
Source Step = 100%
Source Step = 100%
Source Step = 100%
Source Step = 100%
Source Step = 100%
Source Step = 100%
Source Step = 100%
Source Step = 100%
Source Step = 100%
Source Step = 100%
Source Step = 100%
Source Step = 100%
Source Step = 100%
Source Step = 100%
Source Step = 100%
Source Step = 100%
Source Step = 100%
Source Step = 100%
Source Step = 100%
Source Step = 100%
Source Step = 100%
Source Step = 100%
Source Step = 100%
Source Step = 100%
Source Step = 100%
Source Step = 100%
Source Step = 100%
Source Step = 100%
Source Step = 100%
Source Step = 100%
Source Step = 100%
Source Step = 100%
Source Step = 100%
Source Step = 100%
Source Step = 100%
Source Step = 100%
Source Step = 100%
Source Step = 100%
Source Step = 100%
Source Step = 100%
Source Step = 100%
Source Step = 100%
Source Step = 100%
Source Step = 100%
Source Step = 100%
Source Step = 100%
Source Step = 100%
Source Step = 100%
Source Step = 100%
Source Step = 100%
Source Step = 100%
Source Step = 100%
Source Step = 100%
Source Step = 100%
Source Step = 100%
Source Step = 100%
Source Step = 100%
Source Step = 100%
Source Step = 100%
Source Step = 100%
Source Step = 100%
Source Step = 100%
Source Step = 100%
Source Step = 100%
Source Step = 100%
Source Step = 100%
Source Step = 100%
Source Step = 100%
Source Step = 100%
Source Step = 100%
Source Step = 100%
Source Step = 100%
Source Step = 100%
Source Step = 100%
Source Step = 100%
Source Step = 100%
Source Step = 100%
Source Step = 100%
Source Step = 100%
Source Step = 100%
Source Step = 100%
Source Step = 100%
Source Step = 100%
Source Step = 100%
Source Step = 100%
Source Step = 100%
Source Step = 100%
Source Step = 100%
Source Step = 100%
Source Step = 100%
Source Step = 100%
Source Step = 100%
Source Step = 100%
Source Step = 100%
Source Step = 100%
Source Step = 100%
Source Step = 100%
Source Step = 100%
Source Step = 100%
Source Step = 100%
Source Step = 100%
Source Step = 100%
Source Step = 100%
Source Step = 100%
Source Step = 100%
Source Step = 100%
Source Step = 100%
Source Step = 100%
Source Step = 100%
Source Step = 100%
Source Step = 100%
Source Step = 100%
Source Step = 100%
Source Step = 100%
Source Step = 100%
Source Step = 100%
Source Step = 100%
Source Step = 100%
Source Step = 100%
Source Step = 100%
Source Step = 100%
Source Step = 100%
Source Step = 100%
Source Step = 100%
Source Step = 100%
Source Step = 100%
Source Step = 100%
Source Step = 100%
Source Step = 100%
Source Step = 100%
Source Step = 100%
Source Step = 100%
Source Step = 100%
Source Step = 100%
Source Step = 100%
Source Step = 100%
Source Step = 100%
Source Step = 100%
Source Step = 100%
Source Step = 100%
Source Step = 100%
Source Step = 100%
Source Step = 100%
Source Step = 100%
Source Step = 100%
Source Step = 100%
Source Step = 100%
Source Step = 100%
Source Step = 100%
Source Step = 100%
Source Step = 100%
Source Step = 100%
Source Step = 100%
Source Step = 100%
Source Step = 100%
Source Step = 100%
Source Step = 100%
Source Step = 100%
Source Step = 100%
Source Step = 100%
Source Step = 100%
Source Step = 100%
Source Step = 100%
Source Step = 100%
Source Step = 100%
Source Step = 100%
Source Step = 100%
Source Step = 100%
Source Step = 100%
Source Step = 100%
Source Step = 100%
Source Step = 100%
Source Step = 100%
Source Step = 100%
Source Step = 100%
Source Step = 100%
Source Step = 100%
Source Step = 100%
Source Step = 100%
Source Step = 100%
Source Step = 100%
Source Step = 100%
Source Step = 100%
Source Step = 100%
Source Step = 100%
Source Step = 100%
Source Step = 100%
Source Step = 100%
Source Step = 100%
Source Step = 100%
Source Step = 100%
Source Step = 100%
Source Step = 100%
Source Step = 100%
Source Step = 100%
Source Step = 100%
Source Step = 100%
Source Step = 100%
Source Step = 100%
Source Step = 100%
Source Step = 100%
Source Step = 100%
Source Step = 100%
Source Step = 100%
Source Step = 100%
Source Step = 100%
Source Step = 100%
Source Step = 100%
Source Step = 100%
Source Step = 100%
Source Step = 100%
Source Step = 100%
Source Step = 100%
Source Step = 100%
Source Step = 100%
Source Step = 100%
Source Step = 100%
Source Step = 100%
Source Step = 100%
Source Step = 100%
Source Step = 100%
Source Step = 100%
Source Step = 100%
Source Step = 100%
Source Step = 100%
Source Step = 100%
Source Step = 100%
Source Step = 100%
Source Step = 100%
Source Step = 100%
Source Step = 100%
Source Step = 100%
Source Step = 100%
Source Step = 100%
Source Step = 100%
Source Step = 100%
Source Step = 100%
Source Step = 100%
Source Step = 100%
Source Step = 100%
Source Step = 100%
Source Step = 100%
Source Step = 100%
Source Step = 100%
Source Step = 100%
Source Step = 100%
Source Step = 100%
Source Step = 100%
Source Step = 100%
Source Step = 100%
Source Step = 100%
Source Step = 100%
Source Step = 100%
Source Step = 100%
Source Step = 100%
Source Step = 100%
Source Step = 100%
Source Step = 100%
Source Step = 100%
Source Step = 100%
Source Step = 100%
Source Step = 100%
Source Step = 100%
Source Step = 100%
Source Step = 100%
Source Step = 100%
Source Step = 100%
Source Step = 100%
Source Step = 100%
Source Step = 100%
Source Step = 100%
Source Step = 100%
Source Step = 100%
Source Step = 100%
Source Step = 100%
Source Step = 100%
Source Step = 100%
Source Step = 100%
Source Step = 100%
Source Step = 100%
Source Step = 100%
Source Step = 100%
Source Step = 100%
Source Step = 100%
Source Step = 100%
Source Step = 100%
Source Step = 100%
Source Step = 100%
Source Step = 100%
Source Step = 100%
Source Step = 100%
Source Step = 100%
Source Step = 100%
Source Step = 100%
Source Step = 100%
Source Step = 100%
Source Step = 100%
Source Step = 100%
Source Step = 100%
Source Step = 100%
Source Step = 100%
Source Step = 100%
Source Step = 100%
Source Step = 100%
Source Step = 100%
Source Step = 100%
Source Step = 100%
Source Step = 100%
Source Step = 100%
Source Step = 100%
Source Step = 100%
Source Step = 100%
Source Step = 100%
Source Step = 100%
Source Step = 100%
Source Step = 100%
Source Step = 100%
Source Step = 100%
Source Step = 100%
Source Step = 100%
Source Step = 100%
Source Step = 100%
Source Step = 100%
Source Step = 100%
Source Step = 100%
Source Step = 100%
Source Step = 100%
Source Step = 100%
Source Step = 100%
Source Step = 100%
Source Step = 100%
Source Step = 100%
Source Step = 100%
Source Step = 100%
Source Step = 100%
Source Step = 100%
Source Step = 100%
Source Step = 100%
Source Step = 100%
Source Step = 100%
Source Step = 100%
Source Step = 100%
Source Step = 100%
Source Step = 100%
Source Step = 100%
Source Step = 100%
Source Step = 100%
Source Step = 100%
Source Step = 100%
Source Step = 100%
Source Step = 100%
Source Step = 100%
Source Step = 100%
Source Step = 100%
Source Step = 100%
Source Step = 100%
Source Step = 100%
Source Step = 100%
Source Step = 100%
Source Step = 100%
Source Step = 100%
Source Step = 100%
Source Step = 100%
Source Step = 100%
Source Step = 100%
Source Step = 100%
Source Step = 100%
Source Step = 100%
Source Step = 100%
Source Step = 100%
Source Step = 100%
Source Step = 100%
Source Step = 100%
Source Step = 100%
Source Step = 100%
Source Step = 100%
Source Step = 100%
Source Step = 100%
Source Step = 100%
Source Step = 100%
Source Step = 100%
Source Step = 100%
Source Step = 100%
Source Step = 100%
Source Step = 100%
Source Step = 100%
Source Step = 100%
Source Step = 100%
Source Step = 100%
Source Step = 100%
Source Step = 100%
Source Step = 100%
Source Step = 100%
Source Step = 100%
Source Step = 100%
Source Step = 100%
Source Step = 100%
Source Step = 100%
Source Step = 100%
Source Step = 100%
Source Step = 100%
Source Step = 100%
Source Step = 100%
Source Step = 100%
Source Step = 100%
Source Step = 100%
Source Step = 100%
Source Step = 100%
Source Step = 100%
Source Step = 100%
Source Step = 100%
Source Step = 100%
Source Step = 100%
Source Step = 100%
Source Step = 100%
Source Step = 100%
Source Step = 100%
Source Step = 100%
Source Step = 100%
Source Step = 100%
Source Step = 100%
Source Step = 100%
Source Step = 100%
Source Step = 100%
Source Step = 100%
Source Step = 100%
Source Step = 100%
Source Step = 100%
Source Step = 100%
Source Step = 100%
Source Step = 100%
Source Step = 100%
Source Step = 100%
Source Step = 100%
Source Step = 100%
Source Step = 100%
Source Step = 100%
Source Step = 100%
Source Step = 100%
Source Step = 100%
Source Step = 100%
Source Step = 100%
Source Step = 100%
Source Step = 100%
Source Step = 100%
Source Step = 100%
Source Step = 100%
Source Step = 100%
Source Step = 100%
Source Step = 100%
Source Step = 100%
Source Step = 100%
Source Step = 100%
Source Step = 100%
Source Step = 100%
Source Step = 100%
Source Step = 100%
Source Step = 100%
Source Step = 100%
Source Step = 100%
Source Step = 100%
Source Step = 100%
Source Step = 100%
Source Step = 100%
Source Step = 100%
Source Step = 100%
Source Step = 100%
Source Step = 100%
Source Step = 100%
Source Step = 100%
Source Step = 100%
Source Step = 100%
Source Step = 100%
Source Step = 100%
Source Step = 100%
Source Step = 100%
Source Step = 100%
Source Step = 100%
Source Step = 100%
Source Step = 100%
Source Step = 100%
Source Step = 100%
Source Step = 100%
Source Step = 100%
Source Step = 100%
Source Step = 100%
Source Step = 100%
Source Step = 100%
Source Step = 100%
Source Step = 100%
Source Step = 100%
Source Step = 100%
Source Step = 100%
Source Step = 100%
Source Step = 100%
Source Step = 100%
Source Step = 100%
Source Step = 100%
Source Step = 100%
Source Step = 100%
Source Step = 100%
Source Step = 100%
Source Step = 100%
Source Step = 100%
Source Step = 100%
Source Step = 100%
Source Step = 100%
Source Step = 100%
Source Step = 100%
Source Step = 100%
Source Step = 100%
Source Step = 100%
Source Step = 100%
Source Step = 100%
Source Step = 100%
Source Step = 100%
Source Step = 100%
Source Step = 100%
Source Step = 100%
Source Step = 100%
Source Step = 100%
Source Step = 100%
Source Step = 100%
Source Step = 100%
Source Step = 100%
Source Step = 100%
Source Step = 100%
Source Step = 100%
Source Step = 100%
Source Step = 100%
Source Step = 100%
Source Step = 100%
Source Step = 100%
Source Step = 100%
Source Step = 100%
Source Step = 100%
Source Step = 100%
Source Step = 100%
Source Step = 100%
Source Step = 100%
Source Step = 100%
Source Step = 100%
Source Step = 100%
Source Step = 100%
Source Step = 100%
Source Step = 100%
Source Step = 100%
Source Step = 100%
Source Step = 100%
Source Step = 100%
Source Step = 100%
Source Step = 100%
Source Step = 100%
Source Step = 100%
Source Step = 100%
Source Step = 100%
Source Step = 100%
Source Step = 100%
Source Step = 100%
Source Step = 100%
Source Step = 100%
Source Step = 100%
Source Step = 100%
Source Step = 100%
Source Step = 100%
Source Step = 100%
Source Step = 100%
Source Step = 100%
Source Step = 100%
Source Step = 100%
Source Step = 100%
Source Step = 100%
Source Step = 100%
Source Step = 100%
Source Step = 100%
Source Step = 100%
Source Step = 100%
Source Step = 100%
Source Step = 100%
Source Step = 100%
Source Step = 100%
Source Step = 100%
Source Step = 100%
Source Step = 100%
Source Step = 100%
Source Step = 100%
Source Step = 100%
Source Step = 100%
Source Step = 100%
Source Step = 100%
Source Step = 100%
Source Step = 100%
Source Step = 100%
Source Step = 100%
Source Step = 100%
Source Step = 100%
Source Step = 100%
Source Step = 100%
Source Step = 100%
Source Step = 100%
Source Step = 100%
Source Step = 100%
Source Step = 100%
Source Step = 100%
Source Step = 100%
Source Step = 100%
Source Step = 100%
Source Step = 100%
Source Step = 100%
Source Step = 100%
Source Step = 100%
Source Step = 100%
Source Step = 100%
Source Step = 100%
Source Step = 100%
Source Step = 100%
Source Step = 100%
Source Step = 100%
Source Step = 100%
Source Step = 100%
Source Step = 100%
Source Step = 100%
Source Step = 100%
Source Step = 100%
Source Step = 100%
Source Step = 100%
Source Step = 100%
Source Step = 100%
Source Step = 100%
Source Step = 100%
Source Step = 100%
Source Step = 100%
Source Step = 100%
Source Step = 100%
Source Step = 100%
Source Step = 100%
Source Step = 100%
Source Step = 100%
Source Step = 100%
Source Step = 100%
Source Step = 100%
Source Step = 100%
Source Step = 100%
Source Step = 100%
Source Step = 100%
Source Step = 100%
Source Step = 100%
Source Step = 100%
Source Step = 100%
Source Step = 100%
Source Step = 100%
Source Step = 100%
Source Step = 100%
Source Step = 100%
Source Step = 100%
Source Step = 100%
Source Step = 100%
Source Step = 100%
Source Step = 100%
Source Step = 100%
Source Step = 100%
Source Step = 100%
Source Step = 100%
Source Step = 100%
Source Step = 100%
Source Step = 100%
Source Step = 100%
Source Step = 100%
Source Step = 100%
Source Step = 100%
Source Step = 100%
Source Step = 100%
Source Step = 100%
Source Step = 100%
Source Step = 100%
Source Step = 100%
Source Step = 100%
Source Step = 100%
Source Step = 100%
Source Step = 100%
Source Step = 100%
Source Step = 100%
Source Step = 100%
Source Step = 100%
Source Step = 100%
Source Step = 100%
Source Step = 100%
Source Step = 100%
Source Step = 100%
Source Step = 100%
Source Step = 100%
Source Step = 100%
Source Step = 100%
Source Step = 100%
Source Step = 100%
Source Step = 100%
Source Step = 100%
Source Step = 100%
Source Step = 100%
Source Step = 100%
Source Step = 100%
Source Step = 100%
Source Step = 100%
Source Step = 100%
Source Step = 100%
Source Step = 100%
Source Step = 100%
Source Step = 100%
Source Step = 100%
Source Step = 100%
Source Step = 100%
Source Step = 100%
Source Step = 100%
Source Step = 100%
Source Step = 100%
Source Step = 100%
Source Step = 100%
Source Step = 100%
Source Step = 100%
Source Step = 100%
Source Step = 100%
Source Step = 100%
Source Step = 100%
Source Step = 100%
Source Step = 100%
Source Step = 100%
Source Step = 100%
Source Step = 100%
Source Step = 100%
Source Step = 100%
Source Step = 100%
Source Step = 100%
Source Step = 100%
Source Step = 100%
Source Step = 100%
Source Step = 100%
Source Step = 100%
Source Step = 100%
Source Step = 100%
Source Step = 100%
Source Step = 100%
Source Step = 100%
Source Step = 100%
Source Step = 100%
Source Step = 100%
Source Step = 100%
Source Step = 100%
Source Step = 100%
Source Step = 100%
Source Step = 100%
Source Step = 100%
Source Step = 100%
Source Step = 100%
Source Step = 100%
Source Step = 100%
Source Step = 100%
Source Step = 100%
Source Step = 100%
Source Step = 100%
Source Step = 100%
Source Step = 100%
Source Step = 100%
Source Step = 100%
Source Step = 100%
Source Step = 100%
Source Step = 100%
Source Step = 100%
Source Step = 100%
Source Step = 100%
Source Step = 100%
Source Step = 100%
Source Step = 100%
Source Step = 100%
Source Step = 100%
Source Step = 100%
Source Step = 100%
Source Step = 100%
Source Step = 100%
Source Step = 100%
Source Step = 100%
Source Step = 100%
Source Step = 100%
Source Step = 100%
Source Step = 100%
Source Step = 100%
Source Step = 100%
Source Step = 100%
Source Step = 100%
Source Step = 100%
Source Step = 100%
Source Step = 100%
Source Step = 100%
Source Step = 100%
Source Step = 100%
Source Step = 100%
Source Step = 100%
Source Step = 100%
Source Step = 100%
Source Step = 100%
Source Step = 100%
Source Step = 100%
Source Step = 100%
Source Step = 100%
Source Step = 100%
Source Step = 100%
Source Step = 100%
Source Step = 100%
Source Step = 100%
Source Step = 100%
Source Step = 100%
Source Step = 100%
Source Step = 100%
Source Step = 100%
Source Step = 100%
Source Step = 100%
Source Step = 100%
Source Step = 100%
Source Step = 100%
Source Step = 100%
Source Step = 100%
Source Step = 100%
Source Step = 100%
Source Step = 100%
Source Step = 100%
Source Step = 100%
Source Step = 100%
Source Step = 100%
Source Step = 100%
Source Step = 100%
Source Step = 100%
Source Step = 100%
Source Step = 100%
Source Step = 100%
Source Step = 100%
Source Step = 100%
Source Step = 100%
Source Step = 100%
Source Step = 100%
Source Step = 100%
Source Step = 100%
Source Step = 100%
Source Step = 100%
Source Step = 100%
Source Step = 100%
Source Step = 100%
Source Step = 100%
Source Step = 100%
Source Step = 100%
Source Step = 100%
Source Step = 100%
Source Step = 100%
Source Step = 100%
Source Step = 100%
Source Step = 100%
Source Step = 100%
Source Step = 100%
Source Step = 100%
Source Step = 100%
Source Step = 100%
Source Step = 100%
Source Step = 100%
Source Step = 100%
Source Step = 100%
Source Step = 100%
Source Step = 100%
Source Step = 100%
Source Step = 100%
Source Step = 100%
Source Step = 100%
Source Step = 100%
Source Step = 100%
Source Step = 100%
Source Step = 100%
Source Step = 100%
Source Step = 100%
Source Step = 100%
Source Step = 100%
Source Step = 100%
Source Step = 100%
Source Step = 100%
Source Step = 100%
Source Step = 100%
Source Step = 100%
Source Step = 100%
Source Step = 100%
Source Step = 100%
Source Step = 100%
Source Step = 100%
Source Step = 100%
Source Step = 100%
Source Step = 100%
Source Step = 100%
Source Step = 100%
Source Step = 100%
Source Step = 100%
Source Step = 100%
Source Step = 100%
Source Step = 100%
Source Step = 100%
Source Step = 100%
Source Step = 100%
Source Step = 100%
Source Step = 100%
Source Step = 100%
Source Step = 100%
Source Step = 100%
Source Step = 100%
Source Step = 100%
Source Step = 100%
Source Step = 100%
Source Step = 100%
Source Step = 100%
Source Step = 100%
Source Step = 100%
Source Step = 100%
Source Step = 100%
Source Step = 100%
Source Step = 100%
Source Step = 100%
Source Step = 100%
Source Step = 100%
Source Step = 100%
Source Step = 100%
Source Step = 100%
Source Step = 100%
Source Step = 100%
Source Step = 100%
Source Step = 100%
Source Step = 100%
Source Step = 100%
Source Step = 100%
Source Step = 100%
Source Step = 100%
Source Step = 100%
Source Step = 100%
Source Step = 100%
Source Step = 100%
Source Step = 100%
Source Step = 100%
Source Step = 100%
Source Step = 100%
Source Step = 100%
Source Step = 100%
Source Step = 100%
Source Step = 100%
Source Step = 100%
Source Step = 100%
Source Step = 100%
Source Step = 100%
Source Step = 100%
Source Step = 100%
Source Step = 100%
Source Step = 100%
Source Step = 100%
Source Step = 100%
Source Step = 100%
Source Step = 100%
Source Step = 100%
Source Step = 100%
Source Step = 100%
Source Step = 100%
Source Step = 100%
Source Step = 100%
Source Step = 100%
Source Step = 100%
Source Step = 100%
Source Step = 100%
Source Step = 100%
Source Step = 100%
Source Step = 100%
Source Step = 100%
Source Step = 100%
Source Step = 100%
Source Step = 100%
Source Step = 100%
Source Step = 100%
Source Step = 100%
Source Step = 100%
Source Step = 100%
Source Step = 100%
Source Step = 100%
Source Step = 100%
Source Step = 100%
Source Step = 100%
Source Step = 100%
Source Step = 100%
Source Step = 100%
Source Step = 100%
Source Step = 100%
Source Step = 100%
Source Step = 100%
Source Step = 100%
Source Step = 100%
Source Step = 100%
Source Step = 100%
Source Step = 100%
Source Step = 100%
Source Step = 100%
Source Step = 100%
Source Step = 100%
Source Step = 100%
Source Step = 100%
Source Step = 100%
Source Step = 100%
Source Step = 100%
Source Step = 100%
Source Step = 100%
Source Step = 100%
Source Step = 100%
Source Step = 100%
Source Step = 100%
Source Step = 100%
Source Step = 100%
Source Step = 100%
Source Step = 100%
Source Step = 100%
Source Step = 100%
Source Step = 100%
Source Step = 100%
Source Step = 100%
Source Step = 100%
Source Step = 100%
Source Step = 100%
Source Step = 100%
Source Step = 100%
Source Step = 100%
Source Step = 100%
Source Step = 100%
Source Step = 100%
Source Step = 100%
Source Step = 100%
Source Step = 100%
Source Step = 100%
Source Step = 100%
Source Step = 100%
Source Step = 100%
Source Step = 100%
Source Step = 100%
Source Step = 100%
Source Step = 100%
Source Step = 100%
Source Step = 100%
Source Step = 100%
Source Step = 100%
Source Step = 100%
Source Step = 100%
Source Step = 100%
Source Step = 100%
Source Step = 100%
Source Step = 100%
Source Step = 100%
Source Step = 100%
Source Step = 100%
Source Step = 100%
Source Step = 100%
Source Step = 100%
Source Step = 100%
Source Step = 100%
Source Step = 100%
Source Step = 100%
Source Step = 100%
Source Step = 100%
Source Step = 100%
Source Step = 100%
Source Step = 100%
Source Step = 100%
Source Step = 100%
Source Step = 100%
Source Step = 100%
Source Step = 100%
Source Step = 100%
Source Step = 100%
Source Step = 100%
Source Step = 100%
Source Step = 100%
Source Step = 100%
Source Step = 100%
Source Step = 100%
Source Step = 100%
Source Step = 100%
Source Step = 100%
Source Step = 100%
Source Step = 100%
Source Step = 100%
Source Step = 100%
Source Step = 100%
Source Step = 100%
Source Step = 100%
Source Step = 100%
Source Step = 100%
Source Step = 100%
Source Step = 100%
Source Step = 100%
Source Step = 100%
Source Step = 100%
Source Step = 100%
Source Step = 100%
Source Step = 100%
Source Step = 100%
Source Step = 100%
Source Step = 100%
Source Step = 100%
Source Step = 100%
Source Step = 100%
Source Step = 100%
Source Step = 100%
Source Step = 100%
Source Step = 100%
Source Step = 100%
Source Step = 100%
Source Step = 100%
Source Step = 100%
Source Step = 100%
Source Step = 100%
Source Step = 100%
Source Step = 100%
Source Step = 100%
Source Step = 100%
Source Step = 100%
Source Step = 100%
Source Step = 100%
Source Step = 100%
Source Step = 100%
Source Step = 100%
Source Step = 100%
Source Step = 100%
Source Step = 100%
Source Step = 100%
Source Step = 100%
Source Step = 100%
Source Step = 100%
Source Step = 100%
Source Step = 100%
Source Step = 100%
Source Step = 100%
Source Step = 100%
Source Step = 100%
Source Step = 100%
Source Step = 100%
Source Step = 100%
Source Step = 100%
Source Step = 100%
Source Step = 100%
Source Step = 100%
Source Step = 100%
Source Step = 100%
Source Step = 100%
Source Step = 100%
Source Step = 100%
Source Step = 100%
Source Step = 100%
Source Step = 100%
Source Step = 100%
Source Step = 100%
Source Step = 100%
Source Step = 100%
Source Step = 100%
Source Step = 100%
Source Step = 100%
Source Step = 100%
Source Step = 100%
Source Step = 100%
Source Step = 100%
Source Step = 100%
Source Step = 100%
Source Step = 100%
Source Step = 100%
Source Step = 100%
Source Step = 100%
Source Step = 100%
Source Step = 100%
Source Step = 100%
Source Step = 100%
Source Step = 100%
Source Step = 100%
Source Step = 100%
Source Step = 100%
Source Step = 100%
Source Step = 100%
Source Step = 100%
Source Step = 100%
Source Step = 100%
Source Step = 100%
Source Step = 100%
Source Step = 100%
Source Step = 100%
Source Step = 100%
Source Step = 100%
Source Step = 100%
Source Step = 100%
Source Step = 100%
Source Step = 100%
Source Step = 100%
Source Step = 100%
Source Step = 100%
Source Step = 100%
Source Step = 100%
Source Step = 100%
Source Step = 100%
Source Step = 100%
Source Step = 100%
Source Step = 100%
Source Step = 100%
Source Step = 100%
Source Step = 100%
Source Step = 100%
Source Step = 100%
Source Step = 100%
Source Step = 100%
Source Step = 100%
Source Step = 100%
Source Step = 100%
Source Step = 100%
Source Step = 100%
Source Step = 100%
Source Step = 100%
Source Step = 100%
Source Step = 100%
Source Step = 100%
Source Step = 100%
Source Step = 100%
Source Step = 100%
Source Step = 100%
Source Step = 100%
Source Step = 100%
Source Step = 100%
Source Step = 100%
Source Step = 100%
Source Step = 100%
Source Step = 100%
Source Step = 100%
Source Step = 100%
Source Step = 100%
Source Step = 100%
Source Step = 100%
Source Step = 100%
Source Step = 100%
Source Step = 100%
Source Step = 100%
Source Step = 100%
Source Step = 100%
Source Step = 100%
Source Step = 100%
Source Step = 100%
Source Step = 100%
Source Step = 100%
Source Step = 100%
Source Step = 100%
Source Step = 100%
Source Step = 100%
Source Step = 100%
Source Step = 100%
Source Step = 100%
Source Step = 100%
Source Step = 100%
Source Step = 100%
Source Step = 100%
Source Step = 100%
Source Step = 100%
Source Step = 100%
Source Step = 100%
Source Step = 100%
Source Step = 100%
Source Step = 100%
Source Step = 100%
Source Step = 100%
Source Step = 100%
Source Step = 100%
Source Step = 100%
Source Step = 100%
Source Step = 100%
Source Step = 100%
Source Step = 100%
Source Step = 100%
Source Step = 100%
Source Step = 100%
Source Step = 100%
Source Step = 100%
Source Step = 100%
Source Step = 100%
Source Step = 100%
Source Step = 100%
Source Step = 100%
Source Step = 100%
Source Step = 100%
Source Step = 100%
Source Step = 100%
Source Step = 100%
Source Step = 100%
Source Step = 100%
Source Step = 100%
Source Step = 100%
Source Step = 100%
Source Step = 100%
Source Step = 100%
Source Step = 100%
Source Step = 100%
Source Step = 100%
Source Step = 100%
Source Step = 100%
Source Step = 100%
Source Step = 100%
Source Step = 100%
Source Step = 100%
Source Step = 100%
Source Step = 100%
Source Step = 100%
Source Step = 100%
Source Step = 100%
Source Step = 100%
Source Step = 100%
Source Step = 100%
Source Step = 100%
Source Step = 100%
Source Step = 100%
Source Step = 100%
Source Step = 100%
Source Step = 100%
Source Step = 100%
Source Step = 100%
Source Step = 100%
Source Step = 100%
Source Step = 100%
Source Step = 100%
Source Step = 100%
Source Step = 100%
Source Step = 100%
Source Step = 100%
Source Step = 100%
Source Step = 100%
Source Step = 100%
Source Step = 100%
Source Step = 100%
Source Step = 100%
Source Step = 100%
Source Step = 100%
Source Step = 100%
Source Step = 100%
Source Step = 100%
Source Step = 100%
Source Step = 100%
Source Step = 100%
Source Step = 100%
Source Step = 100%
Source Step = 100%
Source Step = 100%
Source Step = 100%
Source Step = 100%
Source Step = 100%
Source Step = 100%
Source Step = 100%
Source Step = 100%
Source Step = 100%
Source Step = 100%
Source Step = 100%
Source Step = 100%
Source Step = 100%
Source Step = 100%
Source Step = 100%
Source Step = 100%
Source Step = 100%
Source Step = 100%
Source Step = 100%
Source Step = 100%
Source Step = 100%
Source Step = 100%
Source Step = 100%
Source Step = 100%
Source Step = 100%
Source Step = 100%
Source Step = 100%
Source Step = 100%
Source Step = 100%
Source Step = 100%
Source Step = 100%
Source Step = 100%
Source Step = 100%
Source Step = 100%
Source Step = 100%
Source Step = 100%
Source Step = 100%
Source Step = 100%
Source Step = 100%
Source Step = 100%
Source Step = 100%
Source Step = 100%
Source Step = 100%
Source Step = 100%
Source Step = 100%
Source Step = 100%
Source Step = 100%
Source Step = 100%
Source Step = 100%
Source Step = 100%
Source Step = 100%
Source Step = 100%
Source Step = 100%
Source Step = 100%
Source Step = 100%
Source Step = 100%
Source Step = 100%
Source Step = 100%
Source Step = 100%
Source Step = 100%
Source Step = 100%
Source Step = 100%
Source Step = 100%
Source Step = 100%
Source Step = 100%
Source Step = 100%
Source Step = 100%
Source Step = 100%
Source Step = 100%
Source Step = 100%
Source Step = 100%
Source Step = 100%
Source Step = 100%
Source Step = 100%
Source Step = 100%
Source Step = 100%
Source Step = 100%
Source Step = 100%
Source Step = 100%
Source Step = 100%
Source Step = 100%
Source Step = 100%
Source Step = 100%
Source Step = 100%
Source Step = 100%
Source Step = 100%
Source Step = 100%
Source Step = 100%
Source Step = 100%
Source Step = 100%
Source Step = 100%
Source Step = 100%
Source Step = 100%
Source Step = 100%
Source Step = 100%
Source Step = 100%
Source Step = 100%
Source Step = 100%
Source Step = 100%
Source Step = 100%
Source Step = 100%
Source Step = 100%
Source Step = 100%
Source Step = 100%
Source Step = 100%
Source Step = 100%
Source Step = 100%
Source Step = 100%
Source Step = 100%
Source Step = 100%
Source Step = 100%
Source Step = 100%
Source Step = 100%
Source Step = 100%
Source Step = 100%
Source Step = 100%
Source Step = 100%
Source Step = 100%
Source Step = 100%
Source Step = 100%
Source Step = 100%
Source Step = 100%
Source Step = 100%
Source Step = 100%
Source Step = 100%
Source Step = 100%
Source Step = 100%
Source Step = 100%
Source Step = 100%
Source Step = 100%
Source Step = 100%
Source Step = 100%
Source Step = 100%
Source Step = 100%
Source Step = 100%
Source Step = 100%
Source Step = 100%
Source Step = 100%
Source Step = 100%
Source Step = 100%
Source Step = 100%
Source Step = 100%
Source Step = 100%
Source Step = 100%
Source Step = 100%
Source Step = 100%
Source Step = 100%
Source Step = 100%
Source Step = 100%
Source Step = 100%
Source Step = 100%
Source Step = 100%
Source Step = 100%
Source Step = 100%
Source Step = 100%
Source Step = 100%
Source Step = 100%
Source Step = 100%
Source Step = 100%
Source Step = 100%
Source Step = 100%
Source Step = 100%
Source Step = 100%
Source Step = 100%
Source Step = 100%
Source Step = 100%
Source Step = 100%
Source Step = 100%
Source Step = 100%
Source Step = 100%
Source Step = 100%
Source Step = 100%
Source Step = 100%
Source Step = 100%
Source Step = 100%
Source Step = 100%
Source Step = 100%
Source Step = 100%
Source Step = 100%
Source Step = 100%
Source Step = 100%
Source Step = 100%
Source Step = 100%
Source Step = 100%
Source Step = 100%
Source Step = 100%
Source Step = 100%
Source Step = 100%
Source Step = 100%
Source Step = 100%
Source Step = 100%
Source Step = 100%
Source Step = 100%
Source Step = 100%
Source Step = 100%
Source Step = 100%
Source Step = 100%
Source Step = 100%
Source Step = 100%
Source Step = 100%
Source Step = 100%
Source Step = 100%
Source Step = 100%
Source Step = 100%
Source Step = 100%
Source Step = 100%
Source Step = 100%
Source Step = 100%
Source Step = 100%
Source Step = 100%
Source Step = 100%
Source Step = 100%
Source Step = 100%
Source Step = 100%
Source Step = 100%
Source Step = 100%
Source Step = 100%
Source Step = 100%
Source Step = 100%
Source Step = 100%
Source Step = 100%
Source Step = 100%
Source Step = 100%
Source Step = 100%
Source Step = 100%
Source Step = 100%
Source Step = 100%
Source Step = 100%
Source Step = 100%
Source Step = 100%
Source Step = 100%
Source Step = 100%
Source Step = 100%
Source Step = 100%
Source Step = 100%
Source Step = 100%
Source Step = 100%
Source Step = 100%
Source Step = 100%
Source Step = 100%
Source Step = 100%
Source Step = 100%
Source Step = 100%
Source Step = 100%
Source Step = 100%
Source Step = 100%
Source Step = 100%
Source Step = 100%
Source Step = 100%
Source Step = 100%
Source Step = 100%
Source Step = 100%
Source Step = 100%
Source Step = 100%
Source Step = 100%
Source Step = 100%
Source Step = 100%
Source Step = 100%
Source Step = 100%
Source Step = 100%
Source Step = 100%
Source Step = 100%
Source Step = 100%
Source Step = 100%
Source Step = 100%
Source Step = 100%
Source Step = 100%
Source Step = 100%
Source Step = 100%
Source Step = 100%
Source Step = 100%
Source Step = 100%
Source Step = 100%
Source Step = 100%
Source Step = 100%
Source Step = 100%
Source Step = 100%
Source Step = 100%
Source Step = 100%
Source Step = 100%
Source Step = 100%
Source Step = 100%
Source Step = 100%
Source Step = 100%
Source Step = 100%
Source Step = 100%
Source Step = 100%
Source Step = 100%
Source Step = 100%
Source Step = 100%
Source Step = 100%
Source Step = 100%
Source Step = 100%
Source Step = 100%
Source Step = 100%
Source Step = 100%
Source Step = 100%
Source Step = 100%
Source Step = 100%
Source Step = 100%
Source Step = 100%
Source Step = 100%
Source Step = 100%
Source Step = 100%
Source Step = 100%
Source Step = 100%
Source Step = 100%
Source Step = 100%
Source Step = 100%
Source Step = 100%
Source Step = 100%
Source Step = 100%
Source Step = 100%
Source Step = 100%
Source Step = 100%
Source Step = 100%
Source Step = 100%
Source Step = 100%
Source Step = 100%
Source Step = 100%
Source Step = 100%
Source Step = 100%
Source Step = 100%
Source Step = 100%
Source Step = 100%
Source Step = 100%
Source Step = 100%
Source Step = 100%
Source Step = 100%
Source Step = 100%
Source Step = 100%
Source Step = 100%
Source Step = 100%
Source Step = 100%
Source Step = 100%
Source Step = 100%
Source Step = 100%
Source Step = 100%
Source Step = 100%
Source Step = 100%
Source Step = 100%
Source Step = 100%
Source Step = 100%
Source Step = 100%
Source Step = 100%
Source Step = 100%
Source Step = 100%
Source Step = 100%
Source Step = 100%
Source Step = 100%
Source Step = 100%
Source Step = 100%
Source Step = 100%
Source Step = 100%
Source Step = 100%
Source Step = 100%
Source Step = 100%
Source Step = 100%
Source Step = 100%
Source Step = 100%
Source Step = 100%
Source Step = 100%
Source Step = 100%
Source Step = 100%
Source Step = 100%
Source Step = 100%
Source Step = 100%
Source Step = 100%
Source Step = 100%
Source Step = 100%
Source Step = 100%
Source Step = 100%
Source Step = 100%
Source Step = 100%
Source Step = 100%
Source Step = 100%
Source Step = 100%
Source Step = 100%
Source Step = 100%
Source Step = 100%
Source Step = 100%
Source Step = 100%
Source Step = 100%
Source Step = 100%
Source Step = 100%
Source Step = 100%
Source Step = 100%
Source Step = 100%
Source Step = 100%
Source Step = 100%
Source Step = 100%
Source Step = 100%
Source Step = 100%
Source Step = 100%
Source Step = 100%
Source Step = 100%
Source Step = 100%
Source Step = 100%
Source Step = 100%
Source Step = 100%
Source Step = 100%
Source Step = 100%
Source Step = 100%
Source Step = 100%
Source Step = 100%
Source Step = 100%
Source Step = 100%
Source Step = 100%
Source Step = 100%
Source Step = 100%
Source Step = 100%
Source Step = 100%
Source Step = 100%
Source Step = 100%
Source Step = 100%
Source Step = 100%
Source Step = 100%
Source Step = 100%
Source Step = 100%
Source Step = 100%
Source Step = 100%
Source Step = 100%
Source Step = 100%
Source Step = 100%
Source Step = 100%
Source Step = 100%
Source Step = 100%
Source Step = 100%
Source Step = 100%
Source Step = 100%
Source Step = 100%
Source Step = 100%
Source Step = 100%
Source Step = 100%
Source Step = 100%
Source Step = 100%
Source Step = 100%
Source Step = 100%
Source Step = 100%
Source Step = 100%
Source Step = 100%
Source Step = 100%
Source Step = 100%
Source Step = 100%
Source Step = 100%
Source Step = 100%
Source Step = 100%
Source Step = 100%
Source Step = 100%
Source Step = 100%
Source Step = 100%
Source Step = 100%
Source Step = 100%
Source Step = 100%
Source Step = 100%
Source Step = 100%
Source Step = 100%
Source Step = 100%
Source Step = 100%
Source Step = 100%
Source Step = 100%
Source Step = 100%
Source Step = 100%
Source Step = 100%
Source Step = 100%
Source Step = 100%
Source Step = 100%
Source Step = 100%
Source Step = 100%
Source Step = 100%
Source Step = 100%
Source Step = 100%
Source Step = 100%
Source Step = 100%
Source Step = 100%
Source Step = 100%
Source Step = 100%
Source Step = 100%
Source Step = 100%
Source Step = 100%
Source Step = 100%
Source Step = 100%
Source Step = 100%
Source Step = 100%
Source Step = 100%
Source Step = 100%
Source Step = 100%
Source Step = 100%
Source Step = 100%
Source Step = 100%
Source Step = 100%
Source Step = 100%
Source Step = 100%
Source Step = 100%
Source Step = 100%
Source Step = 100%
Source Step = 100%
Source Step = 100%
Source Step = 100%
Source Step = 100%
Source Step = 100%
Source Step = 100%
Source Step = 100%
Source Step = 100%
Source Step = 100%
Source Step = 100%
Source Step = 100%
Source Step = 100%
Source Step = 100%
Source Step = 100%
Source Step = 100%
Source Step = 100%
Source Step = 100%
Source Step = 100%
Source Step = 100%
Source Step = 100%
Source Step = 100%
Source Step = 100%
Source Step = 100%
Source Step = 100%
Source Step = 100%
Source Step = 100%
Source Step = 100%
Source Step = 100%
Source Step = 100%
Source Step = 100%
Source Step = 100%
Source Step = 100%
Source Step = 100%
Source Step = 100%
Source Step = 100%
Source Step = 100%
Source Step = 100%
Source Step = 100%
Source Step = 100%
Source Step = 100%
Source Step = 100%
Source Step = 100%
Source Step = 100%
Source Step = 100%
Source Step = 100%
Source Step = 100%
Source Step = 100%
Source Step = 100%
Source Step = 100%
Source Step = 100%
Source Step = 100%
Source Step = 100%
Source Step = 100%
Source Step = 100%
Source Step = 100%
Source Step = 100%
Source Step = 100%
Source Step = 100%
Source Step = 100%
Source Step = 100%
Source Step = 100%
Source Step = 100%
Source Step = 100%
Source Step = 100%
Source Step = 100%
Source Step = 100%
Source Step = 100%
Source Step = 100%
Source Step = 100%
Source Step = 100%
Source Step = 100%
Source Step = 100%
Source Step = 100%
Source Step = 100%
Source Step = 100%
Source Step = 100%
Source Step = 100%
Source Step = 100%
Source Step = 100%
Source Step = 100%
Source Step = 100%
Source Step = 100%
Source Step = 100%
Source Step = 100%
Source Step = 100%
Source Step = 100%
Source Step = 100%
Source Step = 100%
Source Step = 100%
Source Step = 100%
Source Step = 100%
Source Step = 100%
Source Step = 100%
Source Step = 100%
Source Step = 100%
Source Step = 100%
Source Step = 100%
Source Step = 100%
Source Step = 100%
Source Step = 100%
Source Step = 100%
Source Step = 100%
Source Step = 100%
Source Step = 100%
Source Step = 100%
Source Step = 100%
Source Step = 100%
Source Step = 100%
Source Step = 100%
Source Step = 100%
Source Step = 100%
Source Step = 100%
Source Step = 100%
Source Step = 100%
Source Step = 100%
Source Step = 100%
Source Step = 100%
Source Step = 100%
Source Step = 100%
Source Step = 100%
Source Step = 100%
Source Step = 100%
Source Step = 100%
Source Step = 100%
Source Step = 100%
Source Step = 100%
Source Step = 100%
Source Step = 100%
Source Step = 100%
Source Step = 100%
Source Step = 100%
Source Step = 100%
Source Step = 100%
Source Step = 100%
Source Step = 100%
Source Step = 100%
Source Step = 100%
Source Step = 100%
Source Step = 100%
Source Step = 100%
Source Step = 100%
Source Step = 100%
Source Step = 100%
Source Step = 100%
Source Step = 100%
Source Step = 100%
Source Step = 100%
Source Step = 100%
Source Step = 100%
Source Step = 100%
Source Step = 100%
Source Step = 100%
Source Step = 100%
Source Step = 100%
Source Step = 100%
Source Step = 100%
Source Step = 100%
Source Step = 100%
Source Step = 100%
Source Step = 100%
Source Step = 100%
Source Step = 100%
Source Step = 100%
Source Step = 100%
Source Step = 100%
Source Step = 100%
Source Step = 100%
Source Step = 100%
Source Step = 100%
Source Step = 100%
Source Step = 100%
Source Step = 100%
Source Step = 100%
Source Step = 100%
Source Step = 100%
Source Step = 100%
Source Step = 100%
Source Step = 100%
Source Step = 100%
Source Step = 100%
Source Step = 100%
Source Step = 100%
Source Step = 100%
Source Step = 100%
Source Step = 100%
Source Step = 100%
Source Step = 100%
Source Step = 100%
Source Step = 100%
Source Step = 100%
Source Step = 100%
Source Step = 100%
Source Step = 100%
Source Step = 100%
Source Step = 100%
Source Step = 100%
Source Step = 100%
Source Step = 100%
Source Step = 100%
Source Step = 100%
Source Step = 100%
Source Step = 100%
Source Step = 100%
Source Step = 100%
Source Step = 100%
Source Step = 100%
Source Step = 100%
Source Step = 100%
Source Step = 100%
Source Step = 100%
Source Step = 100%
Source Step = 100%
Source Step = 100%
Source Step = 100%
Source Step = 100%
Source Step = 100%
Source Step = 100%
Source Step = 100%
Source Step = 100%
Source Step = 100%
Source Step = 100%
Source Step = 100%
Source Step = 100%
Source Step = 100%
Source Step = 100%
Source Step = 100%
Source Step = 100%
Source Step = 100%
Source Step = 100%
Source Step = 100%
Source Step = 100%
Source Step = 100%
Source Step = 100%
Source Step = 100%
Source Step = 100%
Source Step = 100%
Source Step = 100%
Source Step = 100%
Source Step = 100%
Source Step = 100%
Source Step = 100%
Source Step = 100%
Source Step = 100%
Source Step = 100%
Source Step = 100%
Source Step = 100%
Source Step = 100%
Source Step = 100%
Source Step = 100%
Source Step = 100%
Source Step = 100%
Source Step = 100%
Source Step = 100%
Source Step = 100%
Source Step = 100%
Source Step = 100%
Source Step = 100%
Source Step = 100%
Source Step = 100%
Source Step = 100%
Source Step = 100%
Source Step = 100%
Source Step = 100%
Source Step = 100%
Source Step = 100%
Source Step = 100%
Source Step = 100%
Source Step = 100%
Source Step = 100%
Source Step = 100%
Source Step = 100%
Source Step = 100%
Source Step = 100%
Source Step = 100%
Source Step = 100%
Source Step = 100%
Source Step = 100%
Source Step = 100%
Source Step = 100%
Source Step = 100%
Source Step = 100%
Source Step = 100%
Source Step = 100%
Source Step = 100%
Source Step = 100%
Source Step = 100%
Source Step = 100%
Source Step = 100%
Source Step = 100%
Source Step = 100%
Source Step = 100%
Source Step = 100%
Source Step = 100%
Source Step = 100%
Source Step = 100%
Source Step = 100%
Source Step = 100%
Source Step = 100%
Source Step = 100%
Source Step = 100%
Source Step = 100%
Source Step = 100%
Source Step = 100%
Source Step = 100%
Source Step = 100%
Source Step = 100%
Source Step = 100%
Source Step = 100%
Source Step = 100%
Source Step = 100%
Source Step = 100%
Source Step = 100%
Source Step = 100%
Source Step = 100%
Source Step = 100%
Source Step = 100%
Source Step = 100%
Source Step = 100%
Source Step = 100%
Source Step = 100%
Source Step = 100%
Source Step = 100%
Source Step = 100%
Source Step = 100%
Source Step = 100%
Source Step = 100%
Source Step = 100%
Source Step = 100%
Source Step = 100%
Source Step = 100%
Source Step = 100%
Source Step = 100%
Source Step = 100%
Source Step = 100%
Source Step = 100%
Source Step = 100%
Source Step = 100%
Source Step = 100%
Source Step = 100%
Source Step = 100%
Source Step = 100%
Source Step = 100%
Source Step = 100%
Source Step = 100%
Source Step = 100%
Source Step = 100%
Source Step = 100%
Source Step = 100%
Source Step = 100%
Source Step = 100%
Source Step = 100%
Source Step = 100%
Source Step = 100%
Source Step = 100%
Source Step = 100%
Source Step = 100%
Source Step = 100%
Source Step = 100%
Source Step = 100%
Source Step = 100%
Source Step = 100%
Source Step = 100%
Source Step = 100%
Source Step = 100%
Source Step = 100%
Source Step = 100%
Source Step = 100%
Source Step = 100%
Source Step = 100%
Source Step = 100%
Source Step = 100%
Source Step = 100%
Source Step = 100%
Source Step = 100%
Source Step = 100%
Source Step = 100%
Source Step = 100%
Source Step = 100%
Source Step = 100%
Source Step = 100%
Source Step = 100%
Source Step = 100%
Source Step = 100%
Source Step = 100%
Source Step = 100%
Source Step = 100%
Source Step = 100%
Source Step = 100%
Source Step = 100%
Source Step = 100%
Source Step = 100%
Source Step = 100%
Source Step = 100%
Source Step = 100%
Source Step = 100%
Source Step = 100%
Source Step = 100%
Source Step = 100%
Source Step = 100%
Source Step = 100%
Source Step = 100%
Source Step = 100%
Source Step = 100%
Source Step = 100%
Source Step = 100%
Source Step = 100%
Source Step = 100%
Source Step = 100%
Source Step = 100%
Source Step = 100%
Source Step = 100%
Source Step = 100%
Source Step = 100%
Source Step = 100%
Source Step = 100%
Source Step = 100%
Source Step = 100%
Source Step = 100%
Source Step = 100%
Source Step = 100%
Source Step = 100%
Source Step = 100%
Source Step = 100%
Source Step = 100%
Source Step = 100%
Source Step = 100%
Source Step = 100%
Source Step = 100%
Source Step = 100%
Source Step = 100%
Source Step = 100%
Source Step = 100%
Source Step = 100%
Source Step = 100%
Source Step = 100%
Source Step = 100%
Source Step = 100%
Source Step = 100%
Source Step = 100%
Source Step = 100%
Source Step = 100%
Source Step = 100%
Source Step = 100%
Source Step = 100%
Source Step = 100%
Source Step = 100%
Source Step = 100%
Source Step = 100%
Source Step = 100%
Source Step = 100%
Source Step = 100%
Source Step = 100%
Source Step = 100%
Source Step = 100%
Source Step = 100%
Source Step = 100%
Source Step = 100%
Source Step = 100%
Source Step = 100%
Source Step = 100%
Source Step = 100%
Source Step = 100%
Source Step = 100%
Source Step = 100%
Source Step = 100%
Source Step = 100%
Source Step = 100%
Source Step = 100%
Source Step = 100%
Source Step = 100%
Source Step = 100%
Source Step = 100%
Source Step = 100%
Source Step = 100%
Source Step = 100%
Source Step = 100%
Source Step = 100%
Source Step = 100%
Source Step = 100%
Source Step = 100%
Source Step = 100%
Source Step = 100%
Source Step = 100%
Source Step = 100%
Source Step = 100%
Source Step = 100%
Source Step = 100%
Source Step = 100%
Source Step = 100%
Source Step = 100%
Source Step = 100%
Source Step = 100%
Source Step = 100%
Source Step = 100%
Source Step = 100%
Source Step = 100%
Source Step = 100%
Source Step = 100%
Source Step = 100%
Source Step = 100%
Source Step = 100%
Source Step = 100%
Source Step = 100%
Source Step = 100%
Source Step = 100%
Source Step = 100%
Source Step = 100%
Source Step = 100%
Source Step = 100%
Source Step = 100%
Source Step = 100%
Source Step = 100%
Source Step = 100%
Source Step = 100%
Source Step = 100%
Source Step = 100%
Source Step = 100%
Source Step = 100%
Source Step = 100%
Source Step = 100%
Source Step = 100%
Source Step = 100%
Source Step = 100%
Source Step = 100%
Source Step = 100%
Source Step = 100%
Source Step = 100%
Source Step = 100%
Source Step = 100%
Source Step = 100%
Source Step = 100%
Source Step = 100%
Source Step = 100%
Source Step = 100%
Source Step = 100%
Source Step = 100%
Source Step = 100%
Source Step = 100%
Source Step = 100%
Source Step = 100%
Source Step = 100%
Source Step = 100%
Source Step = 100%
Source Step = 100%
Source Step = 100%
Source Step = 100%
Source Step = 100%
Source Step = 100%
Source Step = 100%
Source Step = 100%
Source Step = 100%
Source Step = 100%
Source Step = 100%
Source Step = 100%
Source Step = 100%
Source Step = 100%
Source Step = 100%
Source Step = 100%
Source Step = 100%
Source Step = 100%
Source Step = 100%
Source Step = 100%
Source Step = 100%
Source Step = 100%
Source Step = 100%
Source Step = 100%
Source Step = 100%
Source Step = 100%
Source Step = 100%
Source Step = 100%
Source Step = 100%
Source Step = 100%
Source Step = 100%
Source Step = 100%
Source Step = 100%
Source Step = 100%
Source Step = 100%
Source Step = 100%
Source Step = 100%
Source Step = 100%
Source Step = 100%
Source Step = 100%
Source Step = 100%
Source Step = 100%
Source Step = 100%
Source Step = 100%
Source Step = 100%
Source Step = 100%
Source Step = 100%
Source Step = 100%
Source Step = 100%
Source Step = 100%
Source Step = 100%
Source Step = 100%
Source Step = 100%
Source Step = 100%
Source Step = 100%
Source Step = 100%
Source Step = 100%
Source Step = 100%
Source Step = 100%
Source Step = 100%
Source Step = 100%
Source Step = 100%
Source Step = 100%
Source Step = 100%
Source Step = 100%
Source Step = 100%
Source Step = 100%
Source Step = 100%
Source Step = 100%
Source Step = 100%
Source Step = 100%
Source Step = 100%
Source Step = 100%
Source Step = 100%
Source Step = 100%
Source Step = 100%
Source Step = 100%
Source Step = 100%
Source Step = 100%
Source Step = 100%
Source Step = 100%
Source Step = 100%
Source Step = 100%
Source Step = 100%
Source Step = 100%
Source Step = 100%
Source Step = 100%
Source Step = 100%
Source Step = 100%
Source Step = 100%
Source Step = 100%
Source Step = 100%
Source Step = 100%
Source Step = 100%
Source Step = 100%
Source Step = 100%
Source Step = 100%
Source Step = 100%
Source Step = 100%
Source Step = 100%
Source Step = 100%
Source Step = 100%
Source Step = 100%
Source Step = 100%
Source Step = 100%
Source Step = 100%
Source Step = 100%
Source Step = 100%
Source Step = 100%
Source Step = 100%
Source Step = 100%
Source Step = 100%
Source Step = 100%
Source Step = 100%
Source Step = 100%
Source Step = 100%
Source Step = 100%
Source Step = 100%
Source Step = 100%
Source Step = 100%
Source Step = 100%
Source Step = 100%
Source Step = 100%
Source Step = 100%
Source Step = 100%
Source Step = 100%
Source Step = 100%
Source Step = 100%
Source Step = 100%
Source Step = 100%
Source Step = 100%
Source Step = 100%
Source Step = 100%
Source Step = 100%
Source Step = 100%
Source Step = 100%
Source Step = 100%
Source Step = 100%
Source Step = 100%
Source Step = 100%
Source Step = 100%
Source Step = 100%
Source Step = 100%
Source Step = 100%
Source Step = 100%
Source Step = 100%
Source Step = 100%
Source Step = 100%
Source Step = 100%
Source Step = 100%
Source Step = 100%
Source Step = 100%
Source Step = 100%
Source Step = 100%
Source Step = 100%
Source Step = 100%
Source Step = 100%
Source Step = 100%
Source Step = 100%
Source Step = 100%
Source Step = 100%
Source Step = 100%
Source Step = 100%
Source Step = 100%
Source Step = 100%
Source Step = 100%
Source Step = 100%
Source Step = 100%
Source Step = 100%
Source Step = 100%
Source Step = 100%
Source Step = 100%
Source Step = 100%
Source Step = 100%
Source Step = 100%
Source Step = 100%
Source Step = 100%
Source Step = 100%
Source Step = 100%
Source Step = 100%
Source Step = 100%
Source Step = 100%
Source Step = 100%
Source Step = 100%
Source Step = 100%
Source Step = 100%
Source Step = 100%
Source Step = 100%
Source Step = 100%
Source Step = 100%
Source Step = 100%
Source Step = 100%
Source Step = 100%
Source Step = 100%
Source Step = 100%
Source Step = 100%
Source Step = 100%
Source Step = 100%
Source Step = 100%
Source Step = 100%
Source Step = 100%
Source Step = 100%
Source Step = 100%
Source Step = 100%
Source Step = 100%
Source Step = 100%
Source Step = 100%
Source Step = 100%
Source Step = 100%
Source Step = 100%
Source Step = 100%
Source Step = 100%
Source Step = 100%
Source Step = 100%
Source Step = 100%
Source Step = 100%
Source Step = 100%
Source Step = 100%
Source Step = 100%
Source Step = 100%
Source Step = 100%
Source Step = 100%
Source Step = 100%
Source Step = 100%
Source Step = 100%
Source Step = 100%
Source Step = 100%
Source Step = 100%
Source Step = 100%
Source Step = 100%
Source Step = 100%
Source Step = 100%
Source Step = 100%
Source Step = 100%
Source Step = 100%
Source Step = 100%
Source Step = 100%
Source Step = 100%
Source Step = 100%
Source Step = 100%
Source Step = 100%
Source Step = 100%
Source Step = 100%
Source Step = 100%
Source Step = 100%
Source Step = 100%
Source Step = 100%
Source Step = 100%
Source Step = 100%
Source Step = 100%
Source Step = 100%
Source Step = 100%
Source Step = 100%
Source Step = 100%
Source Step = 100%
Source Step = 100%
Source Step = 100%
Source Step = 100%
Source Step = 100%
Source Step = 100%
Source Step = 100%
Source Step = 100%
Source Step = 100%
Source Step = 100%
Source Step = 100%
Source Step = 100%
Source Step = 100%
Source Step = 100%
Source Step = 100%
Source Step = 100%
Source Step = 100%
Source Step = 100%
Source Step = 100%
Source Step = 100%
Source Step = 100%
Source Step = 100%
Source Step = 100%
Source Step = 100%
Source Step = 100%
Source Step = 100%
Source Step = 100%
Source Step = 100%
Source Step = 100%
Source Step = 100%
Source Step = 100%
Source Step = 100%
Source Step = 100%
Source Step = 100%
Source Step = 100%
Source Step = 100%
Source Step = 100%
Source Step = 100%
Source Step = 100%
Source Step = 100%
Source Step = 100%
Source Step = 100%
Source Step = 100%
Source Step = 100%
Source Step = 100%
Source Step = 100%
Source Step = 100%
Source Step = 100%
Source Step = 100%
Source Step = 100%
Source Step = 100%
Source Step = 100%
Source Step = 100%
Source Step = 100%
Source Step = 100%
Source Step = 100%
Source Step = 100%
Source Step = 100%
Source Step = 100%
Source Step = 100%
Source Step = 100%
Source Step = 100%
Source Step = 100%
Source Step = 100%
Source Step = 100%
Source Step = 100%
Source Step = 100%
Source Step = 100%
Source Step = 100%
Source Step = 100%
Source Step = 100%
Source Step = 100%
Source Step = 100%
Source Step = 100%
Source Step = 100%
Source Step = 100%
Source Step = 100%
Source Step = 100%
Source Step = 100%
Source Step = 100%
Source Step = 100%
Source Step = 100%
Source Step = 100%
Source Step = 100%
Source Step = 100%
Source Step = 100%
Source Step = 100%
Source Step = 100%
Source Step = 100%
Source Step = 100%
Source Step = 100%
Source Step = 100%
Source Step = 100%
Source Step = 100%
Source Step = 100%
Source Step = 100%
Source Step = 100%
Source Step = 100%
Source Step = 100%
Source Step = 100%
Source Step = 100%
Source Step = 100%
Source Step = 100%
Source Step = 100%
Source Step = 100%
Source Step = 100%
Source Step = 100%
Source Step = 100%
Source Step = 100%
Source Step = 100%
Source Step = 100%
Source Step = 100%
Source Step = 100%
Source Step = 100%
Source Step = 100%
Source Step = 100%
Source Step = 100%
Source Step = 100%
Source Step = 100%
Source Step = 100%
Source Step = 100%
Source Step = 100%
Source Step = 100%
Source Step = 100%
Source Step = 100%
Source Step = 100%
Source Step = 100%
Source Step = 100%
Source Step = 100%
Source Step = 100%
Source Step = 100%
Source Step = 100%
Source Step = 100%
Source Step = 100%
Source Step = 100%
Source Step = 100%
Source Step = 100%
Source Step = 100%
Source Step = 100%
Source Step = 100%
Source Step = 100%
Source Step = 100%
Source Step = 100%
Source Step = 100%
Source Step = 100%
Source Step = 100%
Source Step = 100%
Source Step = 100%
Source Step = 100%
Source Step = 100%
Source Step = 100%
Source Step = 100%
Source Step = 100%
Source Step = 100%
Source Step = 100%
Source Step = 100%
Source Step = 100%
Source Step = 100%
Source Step = 100%
Source Step = 100%
Source Step = 100%
Source Step = 100%
Source Step = 100%
Source Step = 100%
Source Step = 100%
Source Step = 100%
Source Step = 100%
Source Step = 100%
Source Step = 100%
Source Step = 100%
Source Step = 100%
Source Step = 100%
Source Step = 100%
Source Step = 100%
Source Step = 100%
Source Step = 100%
Source Step = 100%
Source Step = 100%
Source Step = 100%
Source Step = 100%
Source Step = 100%
Source Step = 100%
Source Step = 100%
Source Step = 100%
Source Step = 100%
Source Step = 100%
Source Step = 100%
Source Step = 100%
Source Step = 100%
Source Step = 100%
Source Step = 100%
Source Step = 100%
Source Step = 100%
Source Step = 100%
Source Step = 100%
Source Step = 100%
Source Step = 100%
Source Step = 100%
Source Step = 100%
Source Step = 100%
Source Step = 100%
Source Step = 100%
Source Step = 100%
Source Step = 100%
Source Step = 100%
Source Step = 100%
Source Step = 100%
Source Step = 100%
Source Step = 100%
Source Step = 100%
Source Step = 100%
Source Step = 100%
Source Step = 100%
Source Step = 100%
Source Step = 100%
Source Step = 100%
Source Step = 100%
Source Step = 100%
Source Step = 100%
Source Step = 100%
Source Step = 100%
Source Step = 100%
Source Step = 100%
Source Step = 100%
Source Step = 100%
Source Step = 100%
Source Step = 100%
Source Step = 100%
Source Step = 100%
Source Step = 100%
Source Step = 100%
Source Step = 100%
Source Step = 100%
Source Step = 100%
Source Step = 100%
Source Step = 100%
Source Step = 100%
Source Step = 100%
Source Step = 100%
Source Step = 100%
Source Step = 100%
Source Step = 100%
Source Step = 100%
Source Step = 100%
Source Step = 100%
Source Step = 100%
Source Step = 100%
Source Step = 100%
Source Step = 100%
Source Step = 100%
Source Step = 100%
Source Step = 100%
Source Step = 100%
Source Step = 100%
Source Step = 100%
Source Step = 100%
Source Step = 100%
Source Step = 100%
Source Step = 100%
Source Step = 100%
Source Step = 100%
Source Step = 100%
Source Step = 100%
Source Step = 100%
Source Step = 100%
Source Step = 100%
Source Step = 100%
Source Step = 100%
Source Step = 100%
Source Step = 100%
Source Step = 100%
Source Step = 100%
Source Step = 100%
Source Step = 100%
Source Step = 100%
Source Step = 100%
Source Step = 100%
Source Step = 100%
Source Step = 100%
Source Step = 100%
Source Step = 100%
Source Step = 100%
Source Step = 100%
Source Step = 100%
Source Step = 100%
Source Step = 100%
Source Step = 100%
Source Step = 100%
Source Step = 100%
Source Step = 100%
Source Step = 100%
Source Step = 100%
Source Step = 100%
Source Step = 100%
Source Step = 100%
Source Step = 100%
Source Step = 100%
Source Step = 100%
Source Step = 100%
Source Step = 100%
Source Step = 100%
Source Step = 100%
Source Step = 100%
Source Step = 100%
Source Step = 100%
Source Step = 100%
Source Step = 100%
Source Step = 100%
Source Step = 100%
Source Step = 100%
Source Step = 100%
Source Step = 100%
Source Step = 100%
Source Step = 100%
Source Step = 100%
Source Step = 100%
Source Step = 100%
Source Step = 100%
Source Step = 100%
Source Step = 100%
Source Step = 100%
Source Step = 100%
Source Step = 100%
Source Step = 100%
Source Step = 100%
Source Step = 100%
Source Step = 100%
Source Step = 100%
Source Step = 100%
Source Step = 100%
Source Step = 100%
Source Step = 100%
Source Step = 100%
Source Step = 100%
Source Step = 100%
Source Step = 100%
Source Step = 100%
Source Step = 100%
Source Step = 100%
Source Step = 100%
Source Step = 100%
Source Step = 100%
Source Step = 100%
Source Step = 100%
Source Step = 100%
Source Step = 100%
Source Step = 100%
Source Step = 100%
Source Step = 100%
Source Step = 100%
Source Step = 100%
Source Step = 100%
Source Step = 100%
Source Step = 100%
Source Step = 100%
Source Step = 100%
Source Step = 100%
Source Step = 100%
Source Step = 100%
[...]
Direct Newton iteration failed to find .op point.  (Use ".option noopiter" to skip.)
Starting Gmin stepping
Gmin = 10
Gmin = 1.07374
Gmin = 0.115292
Gmin = 0.0123794
Gmin = 0.00132923
Gmin = 0.000142725
vernier = 0.5
vernier = 0.25
Gmin = 0
Gmin stepping aborted per request.

Starting source stepping with srcstepmethod=0
Source Step = 3.0303%
Source Step = 12.1271%
Source Step = 12.1567%
Source Step = 12.1863%
Source Step = 12.2159%
Source Step = 12.2455%
Source Step = 12.2751%
vernier = 0.00146484
Source Step = 12.3195%
Source Step = 12.3639%
Source Step = 12.4083%
Source Step = 12.4527%
Source Step = 12.497%
vernier = 0.00219727
Source Step = 12.5614%
Source Step = 12.628%
Source Step = 12.6946%
Source Step = 12.7612%
Source Step = 12.8277%
vernier = 0.0032959
Source Step = 12.921%
Source Step = 13.0208%
Source Step = 13.1207%
Source Step = 13.2206%
Source Step = 13.3205%
vernier = 0.00494385
Source Step = 13.4553%
Source Step = 13.6051%
Source Step = 13.7549%
Source Step = 13.9047%
Source Step = 14.0545%
vernier = 0.00741577
Source Step = 14.2493%
Source Step = 14.474%
Source Step = 14.6987%
Source Step = 14.9235%
Source Step = 15.1482%
vernier = 0.0111237
Source Step = 15.4291%
Source Step = 15.7662%
Source Step = 16.1032%
Source Step = 16.4403%
Source Step = 16.7774%
vernier = 0.0166855
Source Step = 17.1819%
Source Step = 17.6875%
Source Step = 18.1931%
Source Step = 18.6988%
Source Step = 19.2044%
vernier = 0.0250282
Source Step = 19.7859%
Source Step = 20.5443%
Source Step = 21.3027%
Source Step = 22.0611%
Source Step = 22.8196%
vernier = 0.0375423
Source Step = 23.6539%
Source Step = 24.7915%
Source Step = 25.9291%
Source Step = 27.0668%
Source Step = 28.2044%
vernier = 0.0563135
Source Step = 29.399%
Source Step = 31.1054%
Source Step = 32.8119%
Source Step = 34.5184%
Source Step = 36.2248%
Source Step = 37.9313%
vernier = 0.0844703
Source Step = 40.491%
Source Step = 43.0507%
Source Step = 45.6104%
Source Step = 48.1701%
Source Step = 50.7298%
vernier = 0.126705
Source Step = 54.4414%
Source Step = 58.281%
Source Step = 62.1205%
Source Step = 65.9601%
Source Step = 69.7996%
vernier = 0.190058
Source Step = 75.175%
Source Step = 80.9344%
Source Step = 86.6937%
Source Step = 92.453%
Source Step = 98.2124%
vernier = 0.285087
Source stepping succeeded in finding the operating point.

Direct Newton iteration failed to find .op point.  (Use ".option noopiter" to skip.)
Starting Gmin stepping
Gmin = 10
Gmin = 1.07374
Gmin = 0.115292
Gmin = 0.0123794
Gmin = 0.00132923
Gmin = 0.000142725
vernier = 0.5
vernier = 0.25
vernier = 0.125
vernier = 0.0625
Gmin = 9.13439e-005
vernier = 0.03125
vernier = 0.0416667
Gmin = 8.51685e-005
vernier = 0.0555555
vernier = 0.074074
Gmin = 7.46219e-005
vernier = 0.0987653
Gmin = 6.02638e-005
vernier = 0.131687
vernier = 0.175583
Gmin = 4.25684e-005
vernier = 0.23411
vernier = 0.312147
Gmin = 2.46757e-005
vernier = 0.416196
Gmin = 1.03314e-005
vernier = 0.554928
vernier = 0.739903
Gmin = 2.57938e-006
vernier = 0.986537
vernier = 1
Gmin = 3.30401e-007
Gmin = 3.54766e-008
vernier = 0.5
vernier = 0.25
vernier = 0.125
vernier = 0.0625
Gmin = 0
Gmin stepping aborted per request.

Starting source stepping with srcstepmethod=0
Source Step = 3.0303%
Source Step = 12.1271%
Source Step = 12.1567%
Source Step = 12.1863%
Source Step = 12.2159%
Source Step = 12.2455%
Source Step = 12.2751%
vernier = 0.00146484
Source Step = 12.3195%
Source Step = 12.3639%
Source Step = 12.4083%
Source Step = 12.4527%
Source Step = 12.497%
vernier = 0.00219727
Source Step = 12.5614%
Source Step = 12.628%
Source Step = 12.6946%
Source Step = 12.7612%
Source Step = 12.8277%
vernier = 0.0032959
Source Step = 12.921%
Source Step = 13.0208%
Source Step = 13.1207%
Source Step = 13.2206%
Source Step = 13.3205%
vernier = 0.00494385
Source Step = 13.4553%
Source Step = 13.6051%
Source Step = 13.7549%
Source Step = 13.9047%
Source Step = 14.0545%
vernier = 0.00741577
Source Step = 14.2493%
Source Step = 14.474%
Source Step = 14.6987%
Source Step = 14.9235%
Source Step = 15.1482%
vernier = 0.0111237
Source Step = 15.4291%
Source Step = 15.7662%
Source Step = 16.1032%
Source Step = 16.4403%
Source Step = 16.7774%
vernier = 0.0166855
Source Step = 17.1819%
Source Step = 17.6875%
Source Step = 18.1931%
Source Step = 18.6988%
Source Step = 19.2044%
vernier = 0.0250282
Source Step = 19.7859%
Source Step = 20.5443%
Source Step = 21.3027%
Source Step = 22.0611%
Source Step = 22.8196%
vernier = 0.0375423
Source Step = 23.6539%
Source Step = 24.7915%
Source Step = 25.9291%
Source Step = 27.0668%
Source Step = 28.2044%
vernier = 0.0563135
Source Step = 29.399%
Source Step = 31.1054%
Source Step = 32.8119%
Source Step = 34.5184%
Source Step = 36.2248%
Source Step = 37.9313%
vernier = 0.0844703
Source Step = 40.491%
Source Step = 43.0507%
Source Step = 45.6104%
Source Step = 48.1701%
Source Step = 50.7298%
vernier = 0.126705
Source Step = 54.4414%
Source Step = 58.281%
Source Step = 62.1205%
Source Step = 65.9601%
Source Step = 69.7996%
vernier = 0.190058
Source Step = 75.175%
Source Step = 80.9344%
Source stepping aborted.
Starting source stepping with srcstepmethod=1
Source Step = 3.0303%
vernier = 0.25
Source Step = 7.57576%
Source Step = 15.1515%
Source Step = 22.7273%
Source Step = 30.303%
Source Step = 37.8788%
vernier = 0.375
Source Step = 48.8636%
Source Step = 60.2273%
Source Step = 71.5909%
Source Step = 82.9545%
Source Step = 87.5089%
Source Step = 87.5533%
Source Step = 87.5977%
Source Step = 87.642%
Source Step = 87.6864%
Source Step = 87.7308%
vernier = 0.00219727
Source Step = 87.7907%
Source Step = 87.8573%
Source Step = 87.9239%
Source Step = 87.9905%
Source Step = 88.0571%
vernier = 0.0032959
Source Step = 88.1436%
Source Step = 88.2435%
Source Step = 88.3434%
Source Step = 88.4433%
Source Step = 88.5431%
vernier = 0.00494385
Source Step = 88.668%
Source Step = 88.8178%
Source Step = 88.9676%
Source Step = 89.1174%
Source Step = 89.2672%
vernier = 0.00741577
Source Step = 89.447%
Source Step = 89.6717%
Source Step = 89.8965%
Source Step = 90.065%
Source stepping failed

Pseudo Transient succeeded in finding the operating point at 291.641 ms.
Direct Newton iteration failed to find .op point.  (Use ".option noopiter" to skip.)
Starting Gmin stepping
Gmin = 10
Gmin = 1.07374
Gmin = 0.115292
Gmin = 0.0123794
Gmin = 0.00132923
Gmin = 0.000142725
vernier = 0.5
vernier = 0.25
vernier = 0.125
Gmin = 9.26283e-005
vernier = 0.0625
vernier = 0.03125
vernier = 0.0416667
Gmin = 8.81748e-005
vernier = 0.0555555
Gmin = 7.81431e-005
vernier = 0.074074
vernier = 0.0987653
Gmin = 6.41663e-005
vernier = 0.131687
vernier = 0.175583
Gmin = 4.70399e-005
vernier = 0.23411
Gmin = 2.85542e-005
vernier = 0.312147
vernier = 0.416196
Gmin = 1.27703e-005
vernier = 0.554928
vernier = 0.739903
Gmin = 3.67281e-006
vernier = 0.986537
Gmin = 5.22102e-007
vernier = 1
Gmin = 5.62116e-008
vernier = 0.5
vernier = 0.25
vernier = 0.125
Gmin = 2.0466e-008
vernier = 0.0625
vernier = 0.03125
vernier = 0.015625
vernier = 0.0078125
vernier = 0.00390625
vernier = 0.00195313
Gmin = 0
Gmin stepping aborted per request.

Starting source stepping with srcstepmethod=0
Source Step = 3.0303%
Source Step = 12.1567%
Source Step = 12.2751%
Source Step = 12.3935%
Source Step = 12.5118%
Source Step = 12.6302%
vernier = 0.00585938
Source Step = 12.7604%
Source Step = 12.938%
Source Step = 13.1155%
Source Step = 13.2931%
Source Step = 13.4706%
vernier = 0.00878906
Source Step = 13.6571%
Source Step = 13.9234%
Source Step = 14.1897%
Source Step = 14.4561%
Source Step = 14.7224%
Source Step = 14.9888%
vernier = 0.0131836
Source Step = 15.3883%
Source Step = 15.7878%
Source Step = 16.1873%
Source Step = 16.5868%
Source Step = 16.9863%
vernier = 0.0197754
Source Step = 17.5655%
Source Step = 18.1648%
Source Step = 18.7641%
Source Step = 19.3633%
Source Step = 19.9626%
vernier = 0.0296631
Source Step = 20.8015%
Source Step = 21.7004%
Source Step = 22.5993%
Source Step = 23.4982%
Source Step = 24.397%
vernier = 0.0444946
Source Step = 25.6105%
Source Step = 26.9589%
Source stepping aborted.
Starting source stepping with srcstepmethod=1
Source Step = 3.0303%
vernier = 0.25
Source Step = 0.57706%
Source Step = 0.606652%
Source Step = 0.636245%
Source Step = 0.665838%
Source Step = 0.695431%
Source Step = 0.725024%
vernier = 0.00146484
Source Step = 0.767933%
Source Step = 0.812322%
Source Step = 0.856712%
Source Step = 0.901101%
Source Step = 0.94549%
vernier = 0.00219727
Source Step = 1.00763%
Source Step = 1.07422%
Source Step = 1.1408%
Source Step = 1.20739%
Source Step = 1.27397%
vernier = 0.0032959
Source Step = 1.36386%
Source Step = 1.46373%
Source Step = 1.56361%
Source Step = 1.66349%
Source Step = 1.76336%
vernier = 0.00494385
Source Step = 1.8932%
Source Step = 2.04301%
Source Step = 2.11043%
Source Step = 2.14788%
Source Step = 2.18534%
Source Step = 2.22279%
Source Step = 2.26024%
vernier = 0.00185394
Source Step = 2.30331%
Source Step = 2.35949%
Source Step = 2.41567%
Source Step = 2.47185%
Source Step = 2.52803%
vernier = 0.00278091
Source Step = 2.58983%
Source Step = 2.6741%
Source Step = 2.75837%
Source Step = 2.84264%
Source Step = 2.92691%
vernier = 0.00417137
Source Step = 3.0154%
Source Step = 3.1418%
Source Step = 3.26821%
Source Step = 3.39461%
Source Step = 3.52102%
Source Step = 3.64742%
vernier = 0.00625706
Source Step = 3.83703%
Source Step = 4.02664%
Source Step = 4.21625%
Source Step = 4.40585%
Source Step = 4.59546%
vernier = 0.00938559
Source Step = 4.87039%
Source Step = 5.1548%
Source Step = 5.43922%
Source Step = 5.72363%
Source Step = 6.00804%
vernier = 0.0140784
Source Step = 6.40622%
Source Step = 6.83283%
Source Step = 7.25945%
Source Step = 7.68607%
Source Step = 8.11269%
vernier = 0.0211176
Source Step = 8.68862%
Source Step = 9.21656%
vernier = 0.00131985
Source Step = 9.24056%
Source Step = 9.28055%
Source Step = 9.32055%
Source Step = 9.36054%
Source Step = 9.40054%
vernier = 0.00197977
Source Step = 9.45053%
Source Step = 9.51053%
Source Step = 9.57052%
Source Step = 9.63051%
Source Step = 9.6905%
vernier = 0.00296966
Source Step = 9.7625%
Source Step = 9.85249%
Source Step = 9.94248%
Source Step = 10.0325%
Source Step = 10.1225%
vernier = 0.00445449
Source Step = 10.2259%
Source Step = 10.3609%
Source Step = 10.4959%
Source Step = 10.6309%
Source Step = 10.7659%
vernier = 0.00668173
Source Step = 10.9144%
Source Step = 11.1168%
Source Step = 11.3193%
Source Step = 11.5218%
Source Step = 11.7243%
vernier = 0.0100226
Source Step = 11.9369%
Source Step = 12.2406%
Source Step = 12.5443%
Source Step = 12.848%
Source Step = 13.1517%
Source Step = 13.4554%
vernier = 0.0150339
Source Step = 13.911%
Source Step = 14.3666%
Source Step = 14.8222%
Source Step = 15.2777%
Source Step = 15.7333%
vernier = 0.0225508
Source Step = 16.3939%
Source Step = 17.0772%
Source Step = 17.7606%
Source Step = 18.444%
Source Step = 19.1273%
vernier = 0.0338263
Source Step = 20.084%
Source Step = 21.1091%
Source Step = 22.1341%
Source Step = 23.1591%
Source Step = 24.1842%
vernier = 0.0507394
Source Step = 25.568%
Source Step = 27.1055%
Source Step = 28.6431%
Source Step = 30.1807%
Source Step = 31.7182%
vernier = 0.0761091
Source Step = 33.717%
Source Step = 36.0234%
Source Step = 38.3297%
Source Step = 40.636%
Source Step = 42.9424%
vernier = 0.114164
Source Step = 45.8253%
Source Step = 49.2848%
Source Step = 52.7443%
Source Step = 56.2038%
Source Step = 59.6633%
vernier = 0.171245
Source Step = 63.8147%
Source Step = 69.004%
Source Step = 74.1932%
Source Step = 79.3825%
Source Step = 84.5717%
vernier = 0.256868
Source Step = 90.5394%
Source Step = 94.8692%
Source Step = 95.3557%
Source Step = 95.4712%
Source Step = 95.5016%
Source stepping aborted.
Pseudo Transient succeeded in finding the operating point at 286.968 ms.
Direct Newton iteration failed to find .op point.  (Use ".option noopiter" to skip.)
Starting Gmin stepping
Gmin = 10
Gmin = 1.07374
Gmin = 0.115292
Gmin = 0.0123794
Gmin = 0.00132923
Gmin = 0.000142725
vernier = 0.5
vernier = 0.25
vernier = 0.125
Gmin = 9.26283e-005
vernier = 0.0625
vernier = 0.03125
vernier = 0.0416667
Gmin = 8.95314e-005
vernier = 0.0555555
Gmin = 7.93453e-005
vernier = 0.074074
vernier = 0.0987653
vernier = 0.0493827
Gmin = 0
Gmin stepping aborted per request.

Starting source stepping with srcstepmethod=0
Source Step = 3.0303%
Source Step = 12.1567%
Source Step = 12.2751%
Source Step = 12.3935%
Source Step = 12.5118%
Source Step = 12.6302%
vernier = 0.00585938
Source Step = 12.7604%
Source Step = 12.938%
Source Step = 13.1155%
Source Step = 13.2931%
Source Step = 13.4706%
vernier = 0.00878906
Source Step = 13.6571%
Source Step = 13.9234%
Source Step = 14.1897%
Source stepping aborted.
Starting source stepping with srcstepmethod=1
Source Step = 3.0303%
vernier = 0.25
Source Step = 2.84091%
Source Step = 4.73485%
Source Step = 6.01326%
Source Step = 6.48674%
Source Step = 6.59328%
Source Step = 6.69093%
Source Step = 6.72053%
Source Step = 6.75012%
Source Step = 6.77971%
Source Step = 6.8093%
Source Step = 6.8389%
vernier = 0.00146484
Source Step = 6.88181%
Source Step = 6.9262%
Source Step = 6.97058%
Source Step = 7.01497%
Source Step = 7.05936%
Source Step = 7.10375%
vernier = 0.00219727
Source Step = 7.1548%
Source Step = 7.22138%
Source Step = 7.28797%
Source Step = 7.35455%
Source Step = 7.42114%
vernier = 0.0032959
Source Step = 7.49438%
Source Step = 7.59425%
Source Step = 7.69413%
Source Step = 7.794%
Source Step = 7.89388%
vernier = 0.00494385
Source Step = 7.99875%
Source Step = 8.14856%
Source Step = 8.29838%
Source Step = 8.44819%
Source Step = 8.51561%
Source Step = 8.55306%
Source Step = 8.59051%
Source Step = 8.62797%
Source Step = 8.66542%
vernier = 0.00185394
Source Step = 8.70475%
Source Step = 8.76093%
Source Step = 8.81711%
Source Step = 8.87329%
Source Step = 8.92947%
Source Step = 8.98565%
vernier = 0.00278091
Source Step = 9.06992%
Source Step = 9.15419%
Source Step = 9.23846%
Source Step = 9.32273%
Source Step = 9.407%
vernier = 0.00417137
Source Step = 9.52919%
Source Step = 9.65559%
Source Step = 9.782%
Source Step = 9.9084%
Source Step = 10.0348%
vernier = 0.00625706
Source Step = 10.2118%
Source Step = 10.4014%
Source Step = 10.591%
Source Step = 10.7806%
Source Step = 10.9702%
vernier = 0.00938559
Source Step = 11.2262%
Source Step = 11.5106%
Source Step = 11.795%
Source Step = 12.0794%
Source Step = 12.3638%
vernier = 0.0140784
Source Step = 12.7336%
Source Step = 13.1602%
Source Step = 13.5868%
Source Step = 14.0134%
Source Step = 14.44%
vernier = 0.0211176
Source Step = 14.9733%
Source Step = 15.6132%
Source Step = 16.2532%
Source Step = 16.8931%
Source Step = 17.533%
vernier = 0.0316764
Source Step = 18.3009%
Source Step = 19.2608%
Source Step = 20.2207%
Source Step = 21.1806%
Source Step = 22.1405%
vernier = 0.0475145
Source Step = 23.2444%
Source Step = 24.6842%
Source Step = 26.124%
Source Step = 27.5639%
Source Step = 29.0037%
vernier = 0.0712718
Source Step = 30.5875%
Source Step = 32.7473%
Source Step = 34.907%
Source Step = 37.0668%
Source Step = 39.2265%
vernier = 0.106908
Source Step = 41.4942%
Source Step = 44.7339%
Source Step = 47.9735%
Source Step = 51.2131%
Source Step = 54.4528%
Source Step = 57.6924%
vernier = 0.160362
Source Step = 62.5518%
Source Step = 67.4113%
Source Step = 72.2707%
Source Step = 77.1301%
Source Step = 81.9896%
vernier = 0.240542
Source Step = 89.0358%
Source Step = 90.505%
Source stepping failed

Pseudo Transient succeeded in finding the operating point at 200.543 ms.
Direct Newton iteration failed to find .op point.  (Use ".option noopiter" to skip.)
Starting Gmin stepping
Gmin = 10
Gmin = 1.07374
Gmin = 0.115292
Gmin = 0.0123794
Gmin = 0.00132923
Gmin = 0.000142725
vernier = 0.5
vernier = 0.25
Gmin = 7.96381e-005
vernier = 0.333333
vernier = 0.444444
Gmin = 3.38024e-005
vernier = 0.592592
vernier = 0.790123
Gmin = 8.98257e-006
vernier = 1
Gmin = 1.19514e-006
Gmin = 1.28327e-007
vernier = 0.5
Gmin = 2.15297e-008
vernier = 0.25
vernier = 0.125
vernier = 0.0625
vernier = 0.03125
vernier = 0.015625
vernier = 0.0078125
vernier = 0.00390625
vernier = 0.00195313
vernier = 0.000976563
vernier = 0.000488281
Gmin = 2.15297e-008
Gmin = 0
Gmin stepping failed

Starting source stepping with srcstepmethod=0
Source Step = 3.0303%
Source Step = 12.1567%
Source Step = 12.2751%
Source Step = 12.3935%
Source Step = 12.5118%
Source Step = 12.6302%
vernier = 0.00585938
Source Step = 12.7604%
Source Step = 12.938%
Source Step = 13.1155%
Source Step = 13.2931%
Source Step = 13.4706%
vernier = 0.00878906
Source Step = 13.6571%
Source Step = 13.9234%
Source Step = 14.1897%
Source Step = 14.4561%
Source Step = 14.7224%
Source Step = 14.9888%
vernier = 0.0131836
Source Step = 15.3883%
Source Step = 15.7878%
Source Step = 16.1873%
Source Step = 16.5868%
Source Step = 16.9863%
vernier = 0.0197754
Source Step = 17.5655%
Source Step = 18.1648%
Source Step = 18.7641%
Source Step = 19.3633%
Source Step = 19.9626%
vernier = 0.0296631
Source Step = 20.8015%
Source Step = 21.7004%
Source Step = 22.5993%
Source Step = 23.4982%
Source Step = 24.397%
vernier = 0.0444946
Source Step = 25.6105%
Source Step = 26.9589%
Source Step = 28.3072%
Source Step = 29.6555%
Source Step = 31.0038%
vernier = 0.0667419
Source Step = 32.7566%
Source Step = 34.7791%
Source Step = 36.8016%
Source Step = 38.8241%
Source Step = 40.8466%
vernier = 0.100113
Source Step = 43.3747%
Source Step = 46.4084%
Source Step = 49.4421%
Source Step = 52.4759%
Source Step = 55.5096%
Source Step = 56.8748%
Source Step = 57.6332%
Source Step = 58.3916%
Source Step = 59.15%
Source Step = 59.9085%
vernier = 0.0375423
Source Step = 60.8565%
Source Step = 61.9942%
Source Step = 63.1318%
Source Step = 64.2695%
Source Step = 65.4071%
vernier = 0.0563135
Source Step = 66.7723%
Source Step = 68.4788%
Source Step = 70.1852%
Source Step = 71.8917%
Source Step = 73.5982%
vernier = 0.0844703
Source Step = 75.5606%
Source Step = 78.1203%
vernier = 0.0211176
Source Step = 77.8963%
Source Step = 77.9363%
Source Step = 77.9763%
Source Step = 78.0163%
Source Step = 78.0563%
vernier = 0.00197977
Source Step = 78.1003%
Source Step = 78.1603%
Source Step = 78.2203%
Source Step = 78.2803%
Source Step = 78.3403%
vernier = 0.00296966
Source Step = 78.4033%
Source Step = 78.4933%
Source Step = 78.5833%
Source Step = 78.6732%
Source Step = 78.7632%
Source Step = 78.8532%
vernier = 0.00445449
Source Step = 78.9882%
Source Step = 79.1232%
Source Step = 79.2582%
Source Step = 79.3932%
Source Step = 79.5281%
vernier = 0.00668173
Source Step = 79.7239%
Source Step = 79.9264%
Source Step = 80.1288%
Source Step = 80.3313%
Source Step = 80.5338%
vernier = 0.0100226
Source Step = 80.8172%
Source Step = 81.121%
Source Step = 81.4247%
Source Step = 81.7284%
Source Step = 82.0321%
vernier = 0.0150339
Source Step = 82.4421%
Source Step = 82.8977%
Source Step = 83.3533%
Source Step = 83.8088%
Source Step = 84.2644%
vernier = 0.0225508
Source Step = 84.8567%
Source Step = 85.54%
Source Step = 86.2234%
Source Step = 86.9067%
Source Step = 87.5901%
vernier = 0.0338263
Source Step = 88.4443%
Source Step = 89.4693%
Source Step = 90.4944%
vernier = 0.00845657
Source Step = 90.4495%
Source Step = 90.5136%
Source Step = 90.5777%
Source Step = 90.6417%
Source Step = 90.7058%
Source Step = 90.7698%
Source Step = 90.8339%
Source Step = 90.898%
Source Step = 90.962%
Source Step = 91.0261%
Source Step = 91.0902%
Source Step = 91.1542%
Source Step = 91.2183%
Source Step = 91.2824%
Source Step = 91.3464%
vernier = 0.00317121
Source Step = 91.4297%
Source Step = 91.5258%

Date: Sun Oct 24 22:56:45 2021
Total elapsed time: 2812.950 seconds.

tnom = 27
temp = 27
method = trap
totiter = 13500343
traniter = 0
tranpoints = 0
accept = 0
rejected = 713
matrix size = 188
fillins = 260
solver = Normal
Thread vector: 9.2/6.1[3] 0.0/0.0[3] 4.2/3.9[1] 0.8/1.7[1]  2592/500
Matrix Compiler1: 24.19 KB object code size  10.2/3.9/[1.2]
Matrix Compiler2: 19.35 KB object code size  2.9/2.7/[0.7]

