Circuit: * D:\Projects\CerebroSystem\Sim\DiffoP.asc


Date: Thu Nov 25 16:15:31 2021
Total elapsed time: 0.136 seconds.

tnom = 27
temp = 27
method = trap
totiter = 723
traniter = 0
tranpoints = 0
accept = 0
rejected = 0
matrix size = 17
fillins = 11
solver = Normal
Matrix Compiler1: 1.28 KB object code size  1.0/0.6/[0.4]
Matrix Compiler2: 1.63 KB object code size  0.8/0.8/[0.4]

