Circuit: * D:\Projects\CerebroSystem\Sim\LaserDiode Driver.asc

Direct Newton iteration failed to find .op point.  (Use ".option noopiter" to skip.)
Starting Gmin stepping
Gmin = 10
Gmin = 1.07374
Gmin = 0.115292
Gmin = 0.0123794
Gmin = 0.00132923
Gmin = 0.000142725
vernier = 0.5
vernier = 0.25
vernier = 0.125
Gmin = 7.87341e-005
vernier = 0.0625
vernier = 0.03125
vernier = 0.0416667
Gmin = 7.6494e-005
vernier = 0.0555555
Gmin = 6.7559e-005
vernier = 0.074074
vernier = 0.0987653
Gmin = 5.48905e-005
vernier = 0.131687
vernier = 0.175583
Gmin = 3.94996e-005
vernier = 0.23411
Gmin = 2.36456e-005
vernier = 0.312147
vernier = 0.416196
Gmin = 1.0139e-005
vernier = 0.554928
vernier = 0.739903
Gmin = 2.71689e-006
vernier = 0.986537
Gmin = 3.67112e-007
vernier = 1
Gmin = 3.94184e-008
Gmin = 4.23252e-009
Gmin = 4.54463e-010
Gmin = 4.87976e-011
Gmin = 5.2396e-012
Gmin = 5.62598e-013
Gmin = 0
Gmin stepping succeeded in finding the operating point.

Direct Newton iteration failed to find .op point.  (Use ".option noopiter" to skip.)
Starting Gmin stepping
Gmin = 10
Gmin = 1.07374
Gmin = 0.115292
Gmin = 0.0123794
Gmin = 0.00132923
Gmin = 0.000142725
vernier = 0.5
vernier = 0.25
vernier = 0.125
Gmin = 7.87341e-005
vernier = 0.0625
vernier = 0.03125
vernier = 0.0416667
Gmin = 7.6494e-005
vernier = 0.0555555
Gmin = 6.7559e-005
vernier = 0.074074
vernier = 0.0987653
Gmin = 5.48905e-005
vernier = 0.131687
vernier = 0.175583
Gmin = 3.94996e-005
vernier = 0.23411
Gmin = 2.36456e-005
vernier = 0.312147
vernier = 0.416196
Gmin = 1.0139e-005
vernier = 0.554928
vernier = 0.739903
Gmin = 2.71689e-006
vernier = 0.986537
Gmin = 3.67112e-007
vernier = 1
Gmin = 3.94184e-008
Gmin = 4.23252e-009
Gmin = 4.54463e-010
vernier = 0.5
vernier = 0.666667
Gmin = 1.70161e-010
vernier = 0.333333
vernier = 0.166667
vernier = 0.0833333
vernier = 0.0416667
vernier = 0.0208333
vernier = 0.0104167
vernier = 0.00520833
vernier = 0.00260417
Gmin = 1.45852e-010
vernier = 0.00130208
vernier = 0.000651042
vernier = 0.000488281
Gmin = 0
Gmin stepping failed

Starting source stepping with srcstepmethod=0
Source Step = 3.0303%
Source Step = 12.1271%
Source Step = 12.1567%
Source Step = 12.1863%
Source Step = 12.2159%
Source Step = 12.2455%
Source Step = 12.2751%
vernier = 0.00146484
Source Step = 12.3195%
Source Step = 12.3639%
Source Step = 12.4083%
Source Step = 12.4527%
Source Step = 12.497%
vernier = 0.00219727
Source Step = 12.5614%
Source Step = 12.628%
Source Step = 12.6946%
Source Step = 12.7612%
Source Step = 12.8277%
vernier = 0.0032959
Source Step = 12.921%
Source Step = 13.0208%
Source Step = 13.1207%
Source Step = 13.2206%
Source Step = 13.3205%
vernier = 0.00494385
Source Step = 13.4553%
Source Step = 13.6051%
Source Step = 13.7549%
Source Step = 13.9047%
Source Step = 14.0545%
vernier = 0.00741577
Source Step = 14.2493%
Source Step = 14.474%
Source Step = 14.6987%
Source Step = 14.9235%
Source Step = 15.1482%
vernier = 0.0111237
Source Step = 15.4291%
Source Step = 15.7662%
Source Step = 16.1032%
Source Step = 16.4403%
Source Step = 16.7774%
vernier = 0.0166855
Source Step = 17.1819%
Source Step = 17.6875%
Source Step = 18.1931%
Source Step = 18.6988%
Source Step = 19.2044%
vernier = 0.0250282
Source Step = 19.7859%
Source Step = 20.5443%
Source Step = 21.3027%
Source Step = 22.0611%
Source Step = 22.8196%
vernier = 0.0375423
Source Step = 23.6539%
Source Step = 24.7915%
Source Step = 25.9291%
Source Step = 27.0668%
Source Step = 28.2044%
vernier = 0.0563135
Source Step = 29.399%
Source Step = 31.1054%
Source Step = 32.8119%
Source Step = 34.5184%
Source Step = 36.2248%
Source Step = 37.9313%
vernier = 0.0844703
Source Step = 40.491%
Source Step = 43.0507%
Source Step = 45.6104%
Source Step = 48.1701%
Source Step = 50.7298%
vernier = 0.126705
Source Step = 54.4414%
Source Step = 58.281%
Source Step = 62.1205%
Source Step = 65.9601%
Source Step = 69.7996%
vernier = 0.190058
Source Step = 75.175%
Source Step = 80.9344%
Source Step = 86.6937%
Source Step = 92.453%
Source Step = 98.2124%
vernier = 0.285087
Source Step = 99.6479%
Source stepping succeeded in finding the operating point.

Direct Newton iteration failed to find .op point.  (Use ".option noopiter" to skip.)
Starting Gmin stepping
Gmin = 10
Gmin = 1.07374
Gmin = 0.115292
Gmin = 0.0123794
Gmin = 0.00132923
Gmin = 0.000142725
vernier = 0.5
vernier = 0.25
vernier = 0.125
Gmin = 7.87341e-005
vernier = 0.0625
vernier = 0.03125
vernier = 0.0416667
Gmin = 7.6494e-005
vernier = 0.0555555
Gmin = 6.7559e-005
vernier = 0.074074
vernier = 0.0987653
Gmin = 5.48905e-005
vernier = 0.131687
vernier = 0.175583
Gmin = 3.94996e-005
vernier = 0.23411
Gmin = 2.36456e-005
vernier = 0.312147
vernier = 0.416196
Gmin = 1.0139e-005
vernier = 0.554928
vernier = 0.739903
Gmin = 2.71689e-006
vernier = 0.986537
Gmin = 3.67112e-007
vernier = 1
Gmin = 3.94184e-008
vernier = 0.5
vernier = 0.25
vernier = 0.125
vernier = 0.0625
Gmin = 1.29166e-008
vernier = 0.03125
vernier = 0.015625
vernier = 0.0078125
vernier = 0.00390625
vernier = 0.00195313
vernier = 0.000976563
vernier = 0.000488281
Gmin = 0
Gmin stepping failed

Starting source stepping with srcstepmethod=0
Source Step = 3.0303%
Source Step = 12.1271%
Source Step = 12.1567%
Source Step = 12.1863%
Source Step = 12.2159%
Source Step = 12.2455%
Source Step = 12.2751%
vernier = 0.00146484
Source Step = 12.318%
Source Step = 12.3624%
Source Step = 12.4068%
Source Step = 12.4512%
Source Step = 12.4956%
vernier = 0.00219727
Source Step = 12.5577%
Source Step = 12.6243%
Source Step = 12.6909%
Source Step = 12.7575%
Source Step = 12.824%
vernier = 0.0032959
Source Step = 12.9139%
Source Step = 13.0138%
Source Step = 13.1137%
Source Step = 13.2136%
Source Step = 13.3134%
vernier = 0.00494385
Source Step = 13.4433%
Source Step = 13.5931%
Source Step = 13.7429%
Source Step = 13.8927%
Source Step = 14.0425%
vernier = 0.00741577
Source Step = 14.2298%
Source Step = 14.4545%
Source Step = 14.6792%
Source Step = 14.904%
Source Step = 15.1287%
vernier = 0.0111237
Source Step = 15.3983%
Source Step = 15.7354%
Source Step = 16.0725%
Source Step = 16.4096%
Source Step = 16.7467%
vernier = 0.0166855
Source Step = 17.1343%
Source Step = 17.6399%
Source Step = 18.1455%
Source Step = 18.6512%
Source Step = 19.1568%
vernier = 0.0250282
Source Step = 19.713%
Source Step = 20.4714%
Source Step = 21.2298%
Source Step = 21.9883%
Source Step = 22.7467%
vernier = 0.0375423
Source Step = 23.543%
Source Step = 24.6807%
Source Step = 25.8183%
Source Step = 26.956%
Source Step = 28.0936%
Source Step = 29.2313%
vernier = 0.0563135
Source Step = 30.9377%
Source Step = 32.6442%
Source Step = 34.3507%
Source Step = 36.0572%
Source Step = 37.7636%
vernier = 0.0844703
Source Step = 40.238%
Source Step = 42.7977%
Source Step = 45.3574%
Source Step = 47.9171%
Source Step = 50.4768%
vernier = 0.126705
Source Step = 54.0604%
Source Step = 57.9%
Source Step = 61.7395%
Source Step = 65.5791%
Source Step = 69.4187%
vernier = 0.190058
Source Step = 74.6021%
Source Step = 80.3614%
Source Step = 86.1207%
Source Step = 91.8801%
Source Step = 97.6394%
vernier = 0.285087
Source Step = 100%
Source stepping succeeded in finding the operating point.

Direct Newton iteration failed to find .op point.  (Use ".option noopiter" to skip.)
Starting Gmin stepping
Gmin = 10
Gmin = 1.07374
Gmin = 0.115292
Gmin = 0.0123794
Gmin = 0.00132923
Gmin = 0.000142725
vernier = 0.5
vernier = 0.25
vernier = 0.125
Gmin = 7.87341e-005
vernier = 0.0625
vernier = 0.03125
vernier = 0.0416667
Gmin = 7.6494e-005
vernier = 0.0555555
Gmin = 6.7559e-005
vernier = 0.074074
vernier = 0.0987653
Gmin = 5.48905e-005
vernier = 0.131687
vernier = 0.175583
Gmin = 3.94996e-005
vernier = 0.23411
Gmin = 2.36456e-005
vernier = 0.312147
vernier = 0.416196
Gmin = 1.0139e-005
vernier = 0.554928
vernier = 0.739903
Gmin = 2.71689e-006
vernier = 0.986537
Gmin = 3.67112e-007
vernier = 1
Gmin = 3.94184e-008
vernier = 0.5
vernier = 0.25
vernier = 0.125
vernier = 0.0625
Gmin = 1.29166e-008
vernier = 0.03125
vernier = 0.015625
vernier = 0.0078125
vernier = 0.00390625
vernier = 0.00195313
vernier = 0.000976563
vernier = 0.000488281
Gmin = 0
Gmin stepping failed

Starting source stepping with srcstepmethod=0
Source Step = 3.0303%
Source Step = 12.1271%
Source Step = 12.1567%
Source Step = 12.1863%
Source Step = 12.2159%
Source Step = 12.2455%
Source Step = 12.2751%
vernier = 0.00146484
Source Step = 12.318%
Source Step = 12.3624%
Source Step = 12.4068%
Source Step = 12.4512%
Source Step = 12.4956%
vernier = 0.00219727
Source Step = 12.5577%
Source Step = 12.6243%
Source Step = 12.6909%
Source Step = 12.7575%
Source Step = 12.824%
vernier = 0.0032959
Source Step = 12.9139%
Source Step = 13.0138%
Source Step = 13.1137%
Source Step = 13.2136%
Source Step = 13.3134%
vernier = 0.00494385
Source Step = 13.4433%
Source Step = 13.5931%
Source Step = 13.7429%
Source Step = 13.8927%
Source Step = 14.0425%
vernier = 0.00741577
Source Step = 14.2298%
Source Step = 14.4545%
Source Step = 14.6792%
Source Step = 14.904%
Source Step = 15.1287%
vernier = 0.0111237
Source Step = 15.3983%
Source Step = 15.7354%
Source Step = 16.0725%
Source Step = 16.4096%
Source Step = 16.7467%
vernier = 0.0166855
Source Step = 17.1343%
Source Step = 17.6399%
Source Step = 18.1455%
Source Step = 18.6512%
Source Step = 19.1568%
vernier = 0.0250282
Source Step = 19.713%
Source Step = 20.4714%
Source Step = 21.2298%
Source Step = 21.9883%
Source Step = 22.7467%
vernier = 0.0375423
Source Step = 23.543%
Source Step = 24.6807%
Source Step = 25.8183%
Source Step = 26.956%
Source Step = 28.0936%
Source Step = 29.2313%
vernier = 0.0563135
Source Step = 30.9377%
Source Step = 32.6442%
Source Step = 34.3507%
Source Step = 36.0572%
Source Step = 37.7636%
vernier = 0.0844703
Source Step = 40.238%
Source Step = 42.7977%
Source Step = 45.3574%
Source Step = 47.9171%
Source Step = 50.4768%
vernier = 0.126705
Source Step = 54.0604%
Source Step = 57.9%
Source Step = 61.7395%
Source Step = 65.5791%
Source Step = 69.4187%
vernier = 0.190058
Source Step = 74.6021%
Source Step = 80.3614%
Source Step = 86.1207%
Source Step = 91.8801%
Source Step = 97.6394%
vernier = 0.285087
Source Step = 100%
Source stepping succeeded in finding the operating point.

Direct Newton iteration failed to find .op point.  (Use ".option noopiter" to skip.)
Starting Gmin stepping
Gmin = 10
Gmin = 1.07374
Gmin = 0.115292
Gmin = 0.0123794
Gmin = 0.00132923
Gmin = 0.000142725
vernier = 0.5
vernier = 0.25
vernier = 0.125
Gmin = 7.87341e-005
vernier = 0.0625
vernier = 0.03125
vernier = 0.0416667
Gmin = 7.6494e-005
vernier = 0.0555555
Gmin = 6.7559e-005
vernier = 0.074074
vernier = 0.0987653
Gmin = 5.48905e-005
vernier = 0.131687
vernier = 0.175583
Gmin = 3.94996e-005
vernier = 0.23411
Gmin = 2.36456e-005
vernier = 0.312147
vernier = 0.416196
Gmin = 1.0139e-005
vernier = 0.554928
vernier = 0.739903
Gmin = 2.71689e-006
vernier = 0.986537
Gmin = 3.67112e-007
vernier = 1
Gmin = 3.94184e-008
vernier = 0.5
vernier = 0.25
vernier = 0.125
vernier = 0.0625
Gmin = 1.29166e-008
vernier = 0.03125
vernier = 0.015625
vernier = 0.0078125
vernier = 0.00390625
vernier = 0.00195313
vernier = 0.000976563
vernier = 0.000488281
Gmin = 0
Gmin stepping failed

Starting source stepping with srcstepmethod=0
Source Step = 3.0303%
Source Step = 12.1271%
Source Step = 12.1567%
Source Step = 12.1863%
Source Step = 12.2159%
Source Step = 12.2455%
Source Step = 12.2751%
vernier = 0.00146484
Source Step = 12.318%
Source Step = 12.3624%
Source Step = 12.4068%
Source Step = 12.4512%
Source Step = 12.4956%
vernier = 0.00219727
Source Step = 12.5577%
Source Step = 12.6243%
Source Step = 12.6909%
Source Step = 12.7575%
Source Step = 12.824%
vernier = 0.0032959
Source Step = 12.9139%
Source Step = 13.0138%
Source Step = 13.1137%
Source Step = 13.2136%
Source Step = 13.3134%
vernier = 0.00494385
Source Step = 13.4433%
Source Step = 13.5931%
Source Step = 13.7429%
Source Step = 13.8927%
Source Step = 14.0425%
vernier = 0.00741577
Source Step = 14.2298%
Source Step = 14.4545%
Source Step = 14.6792%
Source Step = 14.904%
Source Step = 15.1287%
vernier = 0.0111237
Source Step = 15.3983%
Source Step = 15.7354%
Source Step = 16.0725%
Source Step = 16.4096%
Source Step = 16.7467%
vernier = 0.0166855
Source Step = 17.1343%
Source Step = 17.6399%
Source Step = 18.1455%
Source Step = 18.6512%
Source Step = 19.1568%
vernier = 0.0250282
Source Step = 19.713%
Source Step = 20.4714%
Source Step = 21.2298%
Source Step = 21.9883%
Source Step = 22.7467%
vernier = 0.0375423
Source Step = 23.543%
Source Step = 24.6807%
Source Step = 25.8183%
Source Step = 26.956%
Source Step = 28.0936%
Source Step = 29.2313%
vernier = 0.0563135
Source Step = 30.9377%
Source Step = 32.6442%
Source Step = 34.3507%
Source Step = 36.0572%
Source Step = 37.7636%
vernier = 0.0844703
Source Step = 40.238%
Source Step = 42.7977%
Source Step = 45.3574%
Source Step = 47.9171%
Source Step = 50.4768%
vernier = 0.126705
Source Step = 54.0604%
Source Step = 57.9%
Source Step = 61.7395%
Source Step = 65.5791%
Source Step = 69.4187%
vernier = 0.190058
Source Step = 74.6021%
Source Step = 80.3614%
Source Step = 86.1207%
Source Step = 91.8801%
Source Step = 97.6394%
vernier = 0.285087
Source Step = 100%
Source stepping succeeded in finding the operating point.

Direct Newton iteration failed to find .op point.  (Use ".option noopiter" to skip.)
Starting Gmin stepping
Gmin = 10
Gmin = 1.07374
Gmin = 0.115292
Gmin = 0.0123794
Gmin = 0.00132923
Gmin = 0.000142725
vernier = 0.5
vernier = 0.25
vernier = 0.125
Gmin = 7.87341e-005
vernier = 0.0625
vernier = 0.03125
vernier = 0.0416667
Gmin = 7.6494e-005
vernier = 0.0555555
Gmin = 6.7559e-005
vernier = 0.074074
vernier = 0.0987653
Gmin = 5.48905e-005
vernier = 0.131687
vernier = 0.175583
Gmin = 3.94996e-005
vernier = 0.23411
Gmin = 2.36456e-005
vernier = 0.312147
vernier = 0.416196
Gmin = 1.0139e-005
vernier = 0.554928
vernier = 0.739903
Gmin = 2.71689e-006
vernier = 0.986537
Gmin = 3.67112e-007
vernier = 1
Gmin = 3.94184e-008
vernier = 0.5
vernier = 0.25
Gmin = 1.27572e-008
vernier = 0.125
vernier = 0.0625
vernier = 0.03125
vernier = 0.015625
vernier = 0.0078125
vernier = 0.00390625
vernier = 0.00195313
vernier = 0.000976563
vernier = 0.000488281
Gmin = 0
Gmin = 0
Gmin stepping failed

Starting source stepping with srcstepmethod=0
Source Step = 3.0303%
Source Step = 12.1271%
Source Step = 12.1567%
Source Step = 12.1863%
Source Step = 12.2159%
Source Step = 12.2455%
Source Step = 12.2751%
vernier = 0.00146484
Source Step = 12.318%
Source Step = 12.3624%
Source Step = 12.4068%
Source Step = 12.4512%
Source Step = 12.4956%
vernier = 0.00219727
Source Step = 12.5577%
Source Step = 12.6243%
Source Step = 12.6909%
Source Step = 12.7575%
Source Step = 12.824%
vernier = 0.0032959
Source Step = 12.9139%
Source Step = 13.0138%
Source Step = 13.1137%
Source Step = 13.2136%
Source Step = 13.3134%
vernier = 0.00494385
Source Step = 13.4433%
Source Step = 13.5931%
Source Step = 13.7429%
Source Step = 13.8927%
Source Step = 14.0425%
vernier = 0.00741577
Source Step = 14.2298%
Source Step = 14.4545%
Source Step = 14.6792%
Source Step = 14.904%
Source Step = 15.1287%
vernier = 0.0111237
Source Step = 15.3983%
Source Step = 15.7354%
Source Step = 16.0725%
Source Step = 16.4096%
Source Step = 16.7467%
vernier = 0.0166855
Source Step = 17.1343%
Source Step = 17.6399%
Source Step = 18.1455%
Source Step = 18.6512%
Source Step = 19.1568%
vernier = 0.0250282
Source Step = 19.713%
Source Step = 20.4714%
Source Step = 21.2298%
Source Step = 21.9883%
Source Step = 22.7467%
vernier = 0.0375423
Source Step = 23.543%
Source Step = 24.6807%
Source Step = 25.8183%
Source Step = 26.956%
Source Step = 28.0936%
Source Step = 29.2313%
vernier = 0.0563135
Source Step = 30.9377%
Source Step = 32.6442%
Source Step = 34.3507%
Source Step = 36.0572%
Source Step = 37.7636%
vernier = 0.0844703
Source Step = 40.238%
Source Step = 42.7977%
Source Step = 45.3574%
Source Step = 47.9171%
Source Step = 50.4768%
vernier = 0.126705
Source Step = 54.0604%
Source Step = 57.9%
Source Step = 61.7395%
Source Step = 65.5791%
Source Step = 69.4187%
vernier = 0.190058
Source Step = 74.6021%
Source Step = 80.3614%
Source Step = 86.1207%
Source Step = 91.8801%
Source Step = 97.6394%
vernier = 0.285087
Source Step = 100%
vernier = 0.0712718
Source stepping succeeded in finding the operating point.

Direct Newton iteration failed to find .op point.  (Use ".option noopiter" to skip.)
Starting Gmin stepping
Gmin = 10
Gmin = 1.07374
Gmin = 0.115292
Gmin = 0.0123794
Gmin = 0.00132923
Gmin = 0.000142725
vernier = 0.5
vernier = 0.25
vernier = 0.125
Gmin = 7.87341e-005
vernier = 0.0625
vernier = 0.03125
vernier = 0.0416667
Gmin = 7.6494e-005
vernier = 0.0555555
Gmin = 6.7559e-005
vernier = 0.074074
vernier = 0.0987653
Gmin = 5.48905e-005
vernier = 0.131687
vernier = 0.175583
Gmin = 3.94996e-005
vernier = 0.23411
Gmin = 2.36456e-005
vernier = 0.312147
vernier = 0.416196
Gmin = 1.0139e-005
vernier = 0.554928
vernier = 0.739903
Gmin = 2.71689e-006
vernier = 0.986537
Gmin = 3.67112e-007
vernier = 1
Gmin = 3.94184e-008
vernier = 0.5
vernier = 0.25
vernier = 0.125
Gmin = 1.51821e-008
vernier = 0.0625
vernier = 0.03125
vernier = 0.015625
vernier = 0.0078125
vernier = 0.00390625
vernier = 0.00195313
vernier = 0.000976563
vernier = 0.000488281
Gmin = 0
Gmin = 0
Gmin stepping failed

Starting source stepping with srcstepmethod=0
Source Step = 3.0303%
Source Step = 12.1271%
Source Step = 12.1567%
Source Step = 12.1863%
Source Step = 12.2159%
Source Step = 12.2455%
Source Step = 12.2751%
vernier = 0.00146484
Source Step = 12.3195%
Source Step = 12.3639%
Source Step = 12.4083%
Source Step = 12.4527%
Source Step = 12.497%
vernier = 0.00219727
Source Step = 12.5614%
Source Step = 12.628%
Source Step = 12.6946%
Source Step = 12.7612%
Source Step = 12.8277%
vernier = 0.0032959
Source Step = 12.921%
Source Step = 13.0208%
Source Step = 13.1207%
Source Step = 13.2206%
Source Step = 13.3205%
vernier = 0.00494385
Source Step = 13.4553%
Source Step = 13.6051%
Source Step = 13.7549%
Source Step = 13.9047%
Source Step = 14.0545%
vernier = 0.00741577
Source Step = 14.2493%
Source Step = 14.474%
Source Step = 14.6987%
Source Step = 14.9235%
Source Step = 15.1482%
vernier = 0.0111237
Source Step = 15.4291%
Source Step = 15.7662%
Source Step = 16.1032%
Source Step = 16.4403%
Source Step = 16.7774%
vernier = 0.0166855
Source Step = 17.1819%
Source Step = 17.6875%
Source Step = 18.1931%
Source Step = 18.6988%
Source Step = 19.2044%
vernier = 0.0250282
Source Step = 19.7859%
Source Step = 20.5443%
Source Step = 21.3027%
Source Step = 22.0611%
Source Step = 22.8196%
vernier = 0.0375423
Source Step = 23.6539%
Source Step = 24.7915%
Source Step = 25.9291%
Source Step = 27.0668%
Source Step = 28.2044%
vernier = 0.0563135
Source Step = 29.399%
Source Step = 31.1054%
Source Step = 32.8119%
Source Step = 34.5184%
Source Step = 36.2248%
Source Step = 37.9313%
vernier = 0.0844703
Source Step = 40.491%
Source Step = 43.0507%
Source Step = 45.6104%
Source Step = 48.1701%
Source Step = 50.7298%
vernier = 0.126705
Source Step = 54.4414%
Source Step = 58.281%
Source Step = 62.1205%
Source Step = 65.9601%
Source Step = 69.7996%
vernier = 0.190058
Source Step = 75.175%
Source Step = 80.9344%
Source Step = 86.6937%
Source Step = 92.453%
Source Step = 98.2124%
vernier = 0.285087
Source stepping succeeded in finding the operating point.

Direct Newton iteration for .op point succeeded.
Direct Newton iteration failed to find .op point.  (Use ".option noopiter" to skip.)
Starting Gmin stepping
Gmin = 10
Gmin = 1.07374
Gmin = 0.115292
Gmin = 0.0123794
Gmin = 0.00132923
Gmin = 0.000142725
Gmin = 1.5325e-005
Gmin = 1.6455e-006
Gmin = 1.76685e-007
vernier = 0.5
vernier = 0.25
vernier = 0.125
Gmin = 4.63168e-008
vernier = 0.0625
vernier = 0.03125
vernier = 0.015625
vernier = 0.0078125
vernier = 0.00390625
vernier = 0.00195313
vernier = 0.000976563
Gmin = 4.62829e-008
vernier = 0.00130208
vernier = 0.00173611
Gmin = 4.613e-008
vernier = 0.00231481
Gmin = 4.58905e-008
vernier = 0.00308642
vernier = 0.00411522
Gmin = 4.54911e-008
vernier = 0.00548696
vernier = 0.00731595
Gmin = 4.48615e-008
vernier = 0.00975459
Gmin = 4.38887e-008
vernier = 0.0130061
vernier = 0.0173415
Gmin = 4.23037e-008
vernier = 0.023122
vernier = 0.0308293
vernier = 0.0154146
Gmin = 4.05137e-008
vernier = 0.00770732
vernier = 0.00385366
vernier = 0.00192683
vernier = 0.000963415
vernier = 0.000481708
Gmin = 0
Gmin stepping failed

Starting source stepping with srcstepmethod=0
Source Step = 3.0303%
Source Step = 12.1271%
Source Step = 12.1567%
Source Step = 12.1863%
Source Step = 12.2159%
Source Step = 12.2455%
Source Step = 12.2751%
vernier = 0.00146484
Source Step = 12.3195%
Source Step = 12.3639%
Source Step = 12.4083%
Source Step = 12.4527%
Source Step = 12.497%
vernier = 0.00219727
Source Step = 12.5614%
Source Step = 12.628%
Source Step = 12.6946%
Source Step = 12.7612%
Source Step = 12.8277%
vernier = 0.0032959
Source Step = 12.921%
Source Step = 13.0208%
Source Step = 13.1207%
Source Step = 13.2206%
Source Step = 13.3205%
vernier = 0.00494385
Source Step = 13.4553%
Source Step = 13.6051%
Source Step = 13.7549%
Source Step = 13.9047%
Source Step = 14.0545%
vernier = 0.00741577
Source Step = 14.2493%
Source Step = 14.474%
Source Step = 14.6987%
Source Step = 14.9235%
Source Step = 15.1482%
vernier = 0.0111237
Source Step = 15.4291%
Source Step = 15.7662%
Source Step = 16.1032%
Source Step = 16.4403%
Source Step = 16.7774%
vernier = 0.0166855
Source Step = 17.1819%
Source Step = 17.6875%
Source Step = 18.1931%
Source Step = 18.6988%
Source Step = 19.2044%
vernier = 0.0250282
Source Step = 19.7859%
Source Step = 20.5443%
Source Step = 21.3027%
Source Step = 22.0611%
Source Step = 22.8196%
vernier = 0.0375423
Source Step = 23.6539%
Source Step = 24.7915%
Source Step = 25.9291%
Source Step = 27.0668%
Source Step = 28.2044%
vernier = 0.0563135
Source Step = 29.399%
Source Step = 31.1054%
Source Step = 32.8119%
Source Step = 34.5184%
Source Step = 36.2248%
Source Step = 37.9313%
vernier = 0.0844703
Source Step = 40.491%
Source Step = 43.0507%
Source Step = 45.6104%
Source Step = 48.1701%
Source Step = 50.7298%
vernier = 0.126705
Source Step = 54.4414%
Source Step = 58.281%
Source Step = 62.1205%
Source Step = 65.9601%
Source Step = 69.7996%
vernier = 0.190058
Source Step = 75.175%
Source Step = 80.9344%
Source Step = 86.6937%
Source Step = 92.453%
Source Step = 98.2124%
vernier = 0.285087
Source stepping succeeded in finding the operating point.

Direct Newton iteration for .op point succeeded.

Date: Thu Nov 25 14:25:54 2021
Total elapsed time: 5.256 seconds.

tnom = 27
temp = 27
method = trap
totiter = 41390
traniter = 0
tranpoints = 0
accept = 0
rejected = 0
matrix size = 148
fillins = 204
solver = Normal
Thread vector: 7.4/5.9[3] 0.0/0.0[0] 3.8/2.6[3] 0.8/1.7[1]  2592/500
Matrix Compiler1: 19.26 KB object code size  3.1/1.9/[0.7]
Matrix Compiler2: 15.79 KB object code size  2.4/2.3/[0.6]

