Circuit: * D:\Projects\CerebroSystem\Sim\HPdriver\HPdriver_2.asc


Date: Wed Dec 01 09:55:05 2021
Total elapsed time: 0.178 seconds.

tnom = 27
temp = 27
method = trap
totiter = 683
traniter = 0
tranpoints = 0
accept = 0
rejected = 0
matrix size = 16
fillins = 13
solver = Normal
Matrix Compiler1: 1.64 KB object code size  0.7/0.6/[0.3]
Matrix Compiler2: 1.67 KB object code size  0.5/0.6/[0.3]

